@<TRIPOS>MOLECULE
ZINC00001219
   28    31     0     0     0
SMALL
USER_CHARGES

@<TRIPOS>ATOM
      1 C1         -0.6236   -2.3173   -0.0036 C.ar      1 <0>        -0.1421
      2 C2         -0.9833   -0.9871    0.0062 C.ar      1 <0>        -0.0480
      3 C3          0.0021   -0.0041    0.0020 C.ar      1 <0>        -0.0768
      4 C4          1.3596   -0.3622   -0.0129 C.ar      1 <0>         0.0702
      5 C5          1.7067   -1.7065   -0.0230 C.ar      1 <0>        -0.1279
      6 C6          0.7199   -2.6766   -0.0179 C.ar      1 <0>         0.1404
      7 O1          1.0663   -3.9910   -0.0274 O.3       1 <0>        -0.4889
      8 O2          2.0958    0.7708   -0.0138 O.3       1 <0>        -0.1609
      9 C7          1.3171    1.8632   -0.0005 C.2       1 <0>         0.1717
     10 C8         -0.0179    1.4680    0.0101 C.2       1 <0>        -0.2717
     11 C9         -1.0380    2.4433    0.0200 C.2       1 <0>         0.5517
     12 O3         -2.2028    2.0886    0.0233 O.2       1 <0>        -0.4475
     13 O4         -0.7491    3.7552    0.0294 O.3       1 <0>        -0.2632
     14 C10         0.5236    4.2084    0.0197 C.ar      1 <0>         0.1830
     15 C11         1.6003    3.3042    0.0045 C.ar      1 <0>        -0.1257
     16 C12         2.9145    3.7785   -0.0059 C.ar      1 <0>        -0.0303
     17 C13         3.1519    5.1237   -0.0014 C.ar      1 <0>        -0.1623
     18 C14         2.0911    6.0252    0.0140 C.ar      1 <0>         0.1780
     19 C15         0.7823    5.5712    0.0245 C.ar      1 <0>        -0.1609
     20 O5          2.3412    7.3598    0.0184 O.3       1 <0>        -0.4884
     21 H1         -1.3862   -3.0821   -0.0005 H         1 <0>         0.1456
     22 H2         -2.0266   -0.7082    0.0178 H         1 <0>         0.1457
     23 H3          2.7474   -1.9952   -0.0345 H         1 <0>         0.1466
     24 H4          1.1752   -4.3754    0.8531 H         1 <0>         0.3985
     25 H5          3.7408    3.0831   -0.0172 H         1 <0>         0.1498
     26 H6          4.1679    5.4899   -0.0095 H         1 <0>         0.1489
     27 H7         -0.0351    6.2770    0.0369 H         1 <0>         0.1595
     28 H8          2.4047    7.7510   -0.8637 H         1 <0>         0.4051
@<TRIPOS>BOND
     1    1    6 ar
     2    1    2 ar
     3    1   21 1
     4    2    3 ar
     5    2   22 1
     6    3   10 1
     7    3    4 ar
     8    4    5 ar
     9    4    8 1
    10    5    6 ar
    11    5   23 1
    12    6    7 1
    13    7   24 1
    14    8    9 1
    15    9   15 1
    16    9   10 2
    17   10   11 1
    18   11   12 2
    19   11   13 1
    20   13   14 1
    21   14   19 ar
    22   14   15 ar
    23   15   16 ar
    24   16   17 ar
    25   16   25 1
    26   17   18 ar
    27   17   26 1
    28   18   19 ar
    29   18   20 1
    30   19   27 1
    31   20   28 1
@<TRIPOS>MOLECULE
ZINC00039316
   30    32     0     0     0
SMALL
USER_CHARGES

@<TRIPOS>ATOM
      1 C1          1.8588    1.0093   -3.5415 C.ar      1 <0>        -0.0599
      2 C2          1.2019    0.7165   -4.7162 C.ar      1 <0>        -0.1528
      3 C3         -0.1655    0.9394   -4.8243 C.ar      1 <0>         0.1364
      4 C4         -0.8773    1.4531   -3.7471 C.ar      1 <0>        -0.1514
      5 C5         -0.2298    1.7434   -2.5666 C.ar      1 <0>        -0.0406
      6 C6          1.1457    1.5209   -2.4532 C.ar      1 <0>        -0.0871
      7 C7          1.8433    1.8305   -1.1919 C.2       1 <0>         0.1786
      8 C8          1.3058    1.3820   -0.0093 C.2       1 <0>        -0.0797
      9 C9          1.9649    1.6788    1.2092 C.2       1 <0>         0.4075
     10 O1          1.5167    1.3027    2.2803 O.2       1 <0>        -0.4500
     11 C10         3.2169    2.4558    1.1326 C.ar      1 <0>        -0.2008
     12 C11         3.9317    2.7874    2.2833 C.ar      1 <0>        -0.0569
     13 C12         5.0976    3.5212    2.1736 C.ar      1 <0>         0.0825
     14 C13         5.5535    3.9269    0.9226 C.ar      1 <0>        -0.0801
     15 C14         4.8528    3.6035   -0.2187 C.ar      1 <0>        -0.1194
     16 C15         3.6782    2.8652   -0.1284 C.ar      1 <0>         0.1349
     17 O2          2.9820    2.5415   -1.2385 O.3       1 <0>        -0.2059
     18 O3          5.8009    3.8479    3.2904 O.3       1 <0>        -0.4908
     19 O4          0.1493    0.6648   -0.0082 O.3       1 <0>        -0.4551
     20 O5         -0.8079    0.6546   -5.9862 O.3       1 <0>        -0.4972
     21 H1          2.9222    0.8396   -3.4597 H         1 <0>         0.1358
     22 H2          1.7512    0.3174   -5.5561 H         1 <0>         0.1384
     23 H3         -1.9399    1.6247   -3.8355 H         1 <0>         0.1398
     24 H4         -0.7839    2.1427   -1.7299 H         1 <0>         0.1419
     25 H5          3.5768    2.4724    3.2535 H         1 <0>         0.1505
     26 H6          6.4655    4.5004    0.8458 H         1 <0>         0.1500
     27 H7          5.2163    3.9234   -1.1841 H         1 <0>         0.1515
     28 H8          5.5401    4.6905    3.6869 H         1 <0>         0.3954
     29 H9          0.2790   -0.2907   -0.0808 H         1 <0>         0.3865
     30 H10        -0.8373    1.3926   -6.6104 H         1 <0>         0.3978
@<TRIPOS>BOND
     1    1    6 ar
     2    1    2 ar
     3    1   21 1
     4    2    3 ar
     5    2   22 1
     6    3    4 ar
     7    3   20 1
     8    4    5 ar
     9    4   23 1
    10    5    6 ar
    11    5   24 1
    12    6    7 1
    13    7   17 1
    14    7    8 2
    15    8    9 1
    16    8   19 1
    17    9   10 2
    18    9   11 1
    19   11   16 ar
    20   11   12 ar
    21   12   13 ar
    22   12   25 1
    23   13   14 ar
    24   13   18 1
    25   14   15 ar
    26   14   26 1
    27   15   16 ar
    28   15   27 1
    29   16   17 1
    30   18   28 1
    31   19   29 1
    32   20   30 1
@<TRIPOS>MOLECULE
ZINC00041692
   30    32     0     0     0
SMALL
USER_CHARGES

@<TRIPOS>ATOM
      1 C1          1.7949    4.2883    0.9346 C.ar      1 <0>        -0.0707
      2 C2          1.7324    5.6662    0.9357 C.ar      1 <0>        -0.1428
      3 C3          0.9197    6.3263    0.0244 C.ar      1 <0>         0.1104
      4 C4          0.1712    5.6027   -0.8937 C.ar      1 <0>        -0.1436
      5 C5          0.2334    4.2248   -0.9033 C.ar      1 <0>        -0.0945
      6 C6          1.0489    3.5590    0.0102 C.ar      1 <0>        -0.0366
      7 C7          1.1181    2.0774    0.0025 C.2       1 <0>        -0.2412
      8 C8         -0.0160    1.3317    0.0094 C.2       1 <0>         0.1314
      9 O1          0.0021   -0.0041    0.0020 O.3       1 <0>        -0.2169
     10 C9          1.1389   -0.7285   -0.0128 C.ar      1 <0>         0.1811
     11 C10         1.0904   -2.1152   -0.0203 C.ar      1 <0>        -0.1840
     12 C11         2.2639   -2.8518   -0.0363 C.ar      1 <0>         0.1939
     13 C12         3.5013   -2.2164   -0.0451 C.ar      1 <0>        -0.2056
     14 C13         3.5719   -0.8360   -0.0374 C.ar      1 <0>         0.2198
     15 C14         2.3891   -0.0848   -0.0212 C.ar      1 <0>        -0.2642
     16 C15         2.4195    1.3863   -0.0131 C.2       1 <0>         0.4288
     17 O2          3.4709    2.0037   -0.0199 O.2       1 <0>        -0.4364
     18 O3          4.7775   -0.2131   -0.0451 O.3       1 <0>        -0.4726
     19 O4          2.2054   -4.2079   -0.0436 O.3       1 <0>        -0.4875
     20 O5          0.8563    7.6839    0.0314 O.3       1 <0>        -0.4989
     21 H1          2.4243    3.7751    1.6466 H         1 <0>         0.1274
     22 H2          2.3131    6.2319    1.6493 H         1 <0>         0.1322
     23 H3         -0.4602    6.1191   -1.6015 H         1 <0>         0.1327
     24 H4         -0.3495    3.6624   -1.6177 H         1 <0>         0.1289
     25 H5         -0.9700    1.8379    0.0166 H         1 <0>         0.2049
     26 H6          0.1363   -2.6213   -0.0136 H         1 <0>         0.1541
     27 H7          4.4083   -2.8026   -0.0577 H         1 <0>         0.1504
     28 H8          5.1354   -0.0382    0.8361 H         1 <0>         0.4031
     29 H9          2.1973   -4.6060    0.8377 H         1 <0>         0.4042
     30 H10         0.1672    8.0425    0.6073 H         1 <0>         0.3922
@<TRIPOS>BOND
     1    1    6 ar
     2    1    2 ar
     3    1   21 1
     4    2    3 ar
     5    2   22 1
     6    3    4 ar
     7    3   20 1
     8    4    5 ar
     9    4   23 1
    10    5    6 ar
    11    5   24 1
    12    6    7 1
    13    7   16 1
    14    7    8 2
    15    8    9 1
    16    8   25 1
    17    9   10 1
    18   10   15 ar
    19   10   11 ar
    20   11   12 ar
    21   11   26 1
    22   12   13 ar
    23   12   19 1
    24   13   14 ar
    25   13   27 1
    26   14   15 ar
    27   14   18 1
    28   15   16 1
    29   16   17 2
    30   18   28 1
    31   19   29 1
    32   20   30 1
@<TRIPOS>MOLECULE
ZINC00047551
   29    31     0     0     0
SMALL
USER_CHARGES

@<TRIPOS>ATOM
      1 C1         -1.5200    3.1036    0.9539 C.ar      1 <0>        -0.0711
      2 C2         -2.7150    3.7924    0.9571 C.ar      1 <0>        -0.1427
      3 C3         -3.7050    3.4717    0.0385 C.ar      1 <0>         0.1100
      4 C4         -3.4939    2.4613   -0.8895 C.ar      1 <0>        -0.1438
      5 C5         -2.2988    1.7726   -0.9014 C.ar      1 <0>        -0.0948
      6 C6         -1.3027    2.0923    0.0196 C.ar      1 <0>        -0.0365
      7 C7         -0.0163    1.3537    0.0095 C.2       1 <0>        -0.2450
      8 C8          0.0021   -0.0041    0.0020 C.2       1 <0>         0.1360
      9 O1          1.1375   -0.7073   -0.0126 O.3       1 <0>        -0.2185
     10 C9          2.3595   -0.1392   -0.0211 C.ar      1 <0>         0.1644
     11 C10         3.5041   -0.9258   -0.0358 C.ar      1 <0>        -0.1723
     12 C11         4.7516   -0.3258   -0.0429 C.ar      1 <0>         0.1761
     13 C12         4.8713    1.0625   -0.0366 C.ar      1 <0>        -0.1726
     14 C13         3.7561    1.8504   -0.0228 C.ar      1 <0>        -0.0121
     15 C14         2.4913    1.2604   -0.0149 C.ar      1 <0>        -0.2314
     16 C15         1.2656    2.0790    0.0011 C.2       1 <0>         0.4292
     17 O2          1.3107    3.2971    0.0076 O.2       1 <0>        -0.4505
     18 O3          5.8686   -1.0971   -0.0562 O.3       1 <0>        -0.4908
     19 O4         -4.8838    4.1482    0.0481 O.3       1 <0>        -0.4991
     20 H1         -0.7519    3.3503    1.6720 H         1 <0>         0.1278
     21 H2         -2.8824    4.5789    1.6781 H         1 <0>         0.1322
     22 H3         -4.2660    2.2143   -1.6031 H         1 <0>         0.1326
     23 H4         -2.1352    0.9863   -1.6235 H         1 <0>         0.1289
     24 H5         -0.9379   -0.5359    0.0085 H         1 <0>         0.2044
     25 H6          3.4210   -2.0026   -0.0410 H         1 <0>         0.1518
     26 H7          5.8508    1.5175   -0.0431 H         1 <0>         0.1443
     27 H8          3.8524    2.9261   -0.0176 H         1 <0>         0.1482
     28 H9          6.1996   -1.3251    0.8233 H         1 <0>         0.4029
     29 H10        -5.5589    3.7539    0.6173 H         1 <0>         0.3922
@<TRIPOS>BOND
     1    1    6 ar
     2    1    2 ar
     3    1   20 1
     4    2    3 ar
     5    2   21 1
     6    3    4 ar
     7    3   19 1
     8    4    5 ar
     9    4   22 1
    10    5    6 ar
    11    5   23 1
    12    6    7 1
    13    7   16 1
    14    7    8 2
    15    8    9 1
    16    8   24 1
    17    9   10 1
    18   10   15 ar
    19   10   11 ar
    20   11   12 ar
    21   11   25 1
    22   12   13 ar
    23   12   18 1
    24   13   14 ar
    25   13   26 1
    26   14   15 ar
    27   14   27 1
    28   15   16 1
    29   16   17 2
    30   18   28 1
    31   19   29 1
@<TRIPOS>MOLECULE
ZINC00056434
   33    34     0     0     0
SMALL
USER_CHARGES

@<TRIPOS>ATOM
      1 C1          0.4226    4.3196   -1.1248 C.3       1 <0>        -0.1393
      2 C2          1.1472    3.5927    0.0099 C.3       1 <0>         0.0178
      3 C3          0.4056    3.8348    1.3261 C.3       1 <0>        -0.1431
      4 C4          1.1827    2.1147   -0.2822 C.ar      1 <0>        -0.0800
      5 C5          1.6869    1.6613   -1.4871 C.ar      1 <0>        -0.0951
      6 C6          1.7210    0.3069   -1.7571 C.ar      1 <0>        -0.1440
      7 C7          1.2488   -0.5985   -0.8180 C.ar      1 <0>         0.1021
      8 C8          0.7433   -0.1410    0.3902 C.ar      1 <0>        -0.1434
      9 C9          0.7114    1.2144    0.6554 C.ar      1 <0>        -0.1018
     10 O1          1.2809   -1.9313   -1.0814 O.3       1 <0>        -0.5002
     11 C10         2.5557    4.1164    0.1232 C.ar      1 <0>        -0.0779
     12 C11         3.6227    3.2373    0.1018 C.ar      1 <0>        -0.0981
     13 C12         4.9151    3.7153    0.1999 C.ar      1 <0>        -0.1434
     14 C13         5.1414    5.0777    0.3307 C.ar      1 <0>         0.1011
     15 C14         4.0689    5.9573    0.3576 C.ar      1 <0>        -0.1433
     16 C15         2.7786    5.4747    0.2540 C.ar      1 <0>        -0.0967
     17 O2          6.4116    5.5501    0.4320 O.3       1 <0>        -0.5006
     18 H1         -0.5962    3.9408   -1.2068 H         1 <0>         0.0630
     19 H2          0.3969    5.3886   -0.9136 H         1 <0>         0.0631
     20 H3          0.9508    4.1471   -2.0625 H         1 <0>         0.0603
     21 H4          0.9218    3.3170    2.1345 H         1 <0>         0.0617
     22 H5          0.3799    4.9038    1.5374 H         1 <0>         0.0627
     23 H6         -0.6132    3.4560    1.2441 H         1 <0>         0.0648
     24 H7          2.0586    2.3663   -2.2161 H         1 <0>         0.1267
     25 H8          2.1153   -0.0468   -2.6983 H         1 <0>         0.1288
     26 H9          0.3748   -0.8438    1.1227 H         1 <0>         0.1287
     27 H10         0.3183    1.5711    1.5959 H         1 <0>         0.1323
     28 H11         2.0968   -2.3681   -0.8012 H         1 <0>         0.3909
     29 H12         3.4457    2.1764    0.0040 H         1 <0>         0.1292
     30 H13         5.7484    3.0286    0.1784 H         1 <0>         0.1272
     31 H14         4.2424    7.0183    0.4597 H         1 <0>         0.1286
     32 H15         1.9433    6.1590    0.2748 H         1 <0>         0.1271
     33 H16         6.7379    5.6095    1.3404 H         1 <0>         0.3907
@<TRIPOS>BOND
     1    1    2 1
     2    1   18 1
     3    1   19 1
     4    1   20 1
     5    2    3 1
     6    2    4 1
     7    2   11 1
     8    3   21 1
     9    3   22 1
    10    3   23 1
    11    4    9 ar
    12    4    5 ar
    13    5    6 ar
    14    5   24 1
    15    6    7 ar
    16    6   25 1
    17    7    8 ar
    18    7   10 1
    19    8    9 ar
    20    8   26 1
    21    9   27 1
    22   10   28 1
    23   11   16 ar
    24   11   12 ar
    25   12   13 ar
    26   12   29 1
    27   13   14 ar
    28   13   30 1
    29   14   15 ar
    30   14   17 1
    31   15   16 ar
    32   15   31 1
    33   16   32 1
    34   17   33 1
@<TRIPOS>MOLECULE
ZINC00056546
   42    43     0     0     0
SMALL
USER_CHARGES

@<TRIPOS>ATOM
      1 C1         -0.0127    1.0858    0.0080 C.3       1 <0>        -0.1526
      2 C2         -0.7288    1.5792    1.2668 C.3       1 <0>        -0.1198
      3 C3         -0.7496    3.1091    1.2752 C.3       1 <0>        -0.0405
      4 H1          0.2682    3.4868    1.1780 H         1 <0>         0.0805
      5 C4         -1.5823    3.6065    0.1219 C.ar      1 <0>        -0.0717
      6 C5         -2.9148    3.2495    0.0283 C.ar      1 <0>        -0.0990
      7 C6         -3.6818    3.7088   -1.0249 C.ar      1 <0>        -0.1423
      8 C7         -3.1109    4.5193   -1.9955 C.ar      1 <0>         0.0988
      9 C8         -1.7723    4.8714   -1.9023 C.ar      1 <0>        -0.1414
     10 C9         -1.0112    4.4145   -0.8438 C.ar      1 <0>        -0.0964
     11 O1         -3.8617    4.9671   -3.0360 O.3       1 <0>        -0.5008
     12 C10        -1.3536    3.6037    2.5911 C.3       1 <0>        -0.0405
     13 H2         -2.3714    3.2260    2.6883 H         1 <0>         0.0805
     14 C11        -0.5081    3.0987    3.7620 C.3       1 <0>        -0.1198
     15 C12        -1.1796    3.4871    5.0808 C.3       1 <0>        -0.1526
     16 C13        -1.3740    5.1105    2.5994 C.ar      1 <0>        -0.0717
     17 C14        -0.1905    5.8174    2.4931 C.ar      1 <0>        -0.0991
     18 C15        -0.2070    7.1988    2.4948 C.ar      1 <0>        -0.1423
     19 C16        -1.4115    7.8767    2.6150 C.ar      1 <0>         0.0988
     20 C17        -2.5971    7.1651    2.7272 C.ar      1 <0>        -0.1415
     21 C18        -2.5757    5.7838    2.7189 C.ar      1 <0>        -0.0964
     22 O2         -1.4298    9.2355    2.6234 O.3       1 <0>        -0.5008
     23 H3          0.0021   -0.0041    0.0020 H         1 <0>         0.0540
     24 H4          1.0099    1.4631    0.0003 H         1 <0>         0.0534
     25 H5         -0.5399    1.4469   -0.8751 H         1 <0>         0.0552
     26 H6         -1.7514    1.2020    1.2746 H         1 <0>         0.0647
     27 H7         -0.2017    1.2182    2.1499 H         1 <0>         0.0716
     28 H8         -3.3575    2.6144    0.7813 H         1 <0>         0.1233
     29 H9         -4.7238    3.4336   -1.0951 H         1 <0>         0.1259
     30 H10        -1.3255    5.5019   -2.6567 H         1 <0>         0.1257
     31 H11         0.0310    4.6883   -0.7708 H         1 <0>         0.1221
     32 H12        -3.8580    4.3806   -3.8048 H         1 <0>         0.3893
     33 H13        -0.4197    2.0138    3.7050 H         1 <0>         0.0716
     34 H14         0.4842    3.5471    3.7136 H         1 <0>         0.0647
     35 H15        -2.1719    3.0387    5.1291 H         1 <0>         0.0534
     36 H16        -0.5772    3.1273    5.9149 H         1 <0>         0.0540
     37 H17        -1.2679    4.5720    5.1377 H         1 <0>         0.0552
     38 H18         0.7474    5.2892    2.4047 H         1 <0>         0.1233
     39 H19         0.7172    7.7505    2.4069 H         1 <0>         0.1259
     40 H20        -3.5360    7.6905    2.8213 H         1 <0>         0.1257
     41 H21        -3.4984    5.2294    2.8062 H         1 <0>         0.1221
     42 H22        -1.3494    9.6245    3.5050 H         1 <0>         0.3893
@<TRIPOS>BOND
     1    1    2 1
     2    1   23 1
     3    1   24 1
     4    1   25 1
     5    2    3 1
     6    2   26 1
     7    2   27 1
     8    3    4 1
     9    3    5 1
    10    3   12 1
    11    5   10 ar
    12    5    6 ar
    13    6    7 ar
    14    6   28 1
    15    7    8 ar
    16    7   29 1
    17    8    9 ar
    18    8   11 1
    19    9   10 ar
    20    9   30 1
    21   10   31 1
    22   11   32 1
    23   12   13 1
    24   12   14 1
    25   12   16 1
    26   14   15 1
    27   14   33 1
    28   14   34 1
    29   15   35 1
    30   15   36 1
    31   15   37 1
    32   16   21 ar
    33   16   17 ar
    34   17   18 ar
    35   17   38 1
    36   18   19 ar
    37   18   39 1
    38   19   20 ar
    39   19   22 1
    40   20   21 ar
    41   20   40 1
    42   21   41 1
    43   22   42 1
@<TRIPOS>MOLECULE
ZINC00056548
   42    43     0     0     0
SMALL
USER_CHARGES

@<TRIPOS>ATOM
      1 C1          3.2840    1.7911    3.6874 C.3       1 <0>        -0.1518
      2 C2          2.5877    1.1103    2.5074 C.3       1 <0>        -0.1163
      3 C3          3.2692    1.5284    1.2029 C.3       1 <0>        -0.0400
      4 H1          3.2814    2.6160    1.1317 H         1 <0>         0.0808
      5 C4          4.6834    1.0080    1.1856 C.ar      1 <0>        -0.0743
      6 C5          4.9201   -0.3505    1.2866 C.ar      1 <0>        -0.0987
      7 C6          6.2153   -0.8305    1.2653 C.ar      1 <0>        -0.1417
      8 C7          7.2794    0.0527    1.1544 C.ar      1 <0>         0.0986
      9 C8          7.0394    1.4157    1.0589 C.ar      1 <0>        -0.1421
     10 C9          5.7421    1.8903    1.0745 C.ar      1 <0>        -0.1006
     11 O1          8.5547   -0.4166    1.1397 O.3       1 <0>        -0.5009
     12 C10         2.4977    0.9483    0.0158 C.3       1 <0>        -0.0398
     13 H2          2.4938   -0.1397    0.0817 H         1 <0>         0.0808
     14 C11         3.1713    1.3777   -1.2891 C.3       1 <0>        -0.1162
     15 C12         2.4782    0.6945   -2.4697 C.3       1 <0>        -0.1513
     16 C13         1.0798    1.4581    0.0406 C.ar      1 <0>        -0.0741
     17 C14         0.0273    0.5665    0.1359 C.ar      1 <0>        -0.1005
     18 C15        -1.2736    1.0310    0.1531 C.ar      1 <0>        -0.1421
     19 C16        -1.5231    2.3941    0.0863 C.ar      1 <0>         0.0985
     20 C17        -0.4653    3.2867   -0.0088 C.ar      1 <0>        -0.1417
     21 C18         0.8335    2.8168   -0.0314 C.ar      1 <0>        -0.0988
     22 O2         -2.8018    2.8538    0.1082 O.3       1 <0>        -0.5009
     23 H3          4.3319    1.4921    3.7128 H         1 <0>         0.0547
     24 H4          3.2177    2.8731    3.5734 H         1 <0>         0.0529
     25 H5          2.7985    1.4933    4.6168 H         1 <0>         0.0533
     26 H6          1.5399    1.4094    2.4820 H         1 <0>         0.0689
     27 H7          2.6541    0.0283    2.6214 H         1 <0>         0.0632
     28 H8          4.0916   -1.0372    1.3781 H         1 <0>         0.1247
     29 H9          6.3995   -1.8921    1.3395 H         1 <0>         0.1270
     30 H10         7.8661    2.1053    0.9728 H         1 <0>         0.1271
     31 H11         5.5548    2.9513    1.0002 H         1 <0>         0.1247
     32 H12         8.9589   -0.4845    2.0156 H         1 <0>         0.3903
     33 H13         3.0941    2.4594   -1.3990 H         1 <0>         0.0633
     34 H14         4.2221    1.0887   -1.2679 H         1 <0>         0.0687
     35 H15         2.4652   -0.3836   -2.3090 H         1 <0>         0.0532
     36 H16         1.4553    1.0618   -2.5527 H         1 <0>         0.0540
     37 H17         3.0203    0.9184   -3.3884 H         1 <0>         0.0533
     38 H18         0.2223   -0.4942    0.1924 H         1 <0>         0.1246
     39 H19        -2.0955    0.3338    0.2227 H         1 <0>         0.1271
     40 H20        -0.6571    4.3480   -0.0648 H         1 <0>         0.1270
     41 H21         1.6573    3.5112   -0.1058 H         1 <0>         0.1246
     42 H22        -3.2061    2.9336   -0.7665 H         1 <0>         0.3902
@<TRIPOS>BOND
     1    1    2 1
     2    1   23 1
     3    1   24 1
     4    1   25 1
     5    2    3 1
     6    2   26 1
     7    2   27 1
     8    3    4 1
     9    3    5 1
    10    3   12 1
    11    5   10 ar
    12    5    6 ar
    13    6    7 ar
    14    6   28 1
    15    7    8 ar
    16    7   29 1
    17    8    9 ar
    18    8   11 1
    19    9   10 ar
    20    9   30 1
    21   10   31 1
    22   11   32 1
    23   12   13 1
    24   12   14 1
    25   12   16 1
    26   14   15 1
    27   14   33 1
    28   14   34 1
    29   15   35 1
    30   15   36 1
    31   15   37 1
    32   16   21 ar
    33   16   17 ar
    34   17   18 ar
    35   17   38 1
    36   18   19 ar
    37   18   39 1
    38   19   20 ar
    39   19   22 1
    40   20   21 ar
    41   20   40 1
    42   21   41 1
    43   22   42 1
@<TRIPOS>MOLECULE
ZINC00057656
   29    31     0     0     0
SMALL
USER_CHARGES

@<TRIPOS>ATOM
      1 C1         -3.6964    3.3248    0.0473 C.ar      1 <0>        -0.0604
      2 C2         -4.8897    4.0122    0.0669 C.ar      1 <0>        -0.1478
      3 C3         -4.8934    5.4019    0.0740 C.ar      1 <0>         0.1366
      4 C4         -3.6940    6.1041    0.0673 C.ar      1 <0>        -0.1502
      5 C5         -2.4961    5.4249    0.0530 C.ar      1 <0>        -0.0595
      6 C6         -2.4877    4.0270    0.0458 C.ar      1 <0>        -0.0868
      7 C7         -1.2073    3.2952    0.0305 C.2       1 <0>         0.2160
      8 C8         -1.2314    1.9337    0.0182 C.2       1 <0>        -0.3186
      9 C9         -0.0145    1.2159    0.0087 C.2       1 <0>         0.4221
     10 O1          0.0021   -0.0041    0.0020 O.2       1 <0>        -0.4662
     11 C10         1.2367    2.0005    0.0010 C.ar      1 <0>        -0.2050
     12 C11         2.4824    1.3759   -0.0148 C.ar      1 <0>        -0.0578
     13 C12         3.6306    2.1457   -0.0216 C.ar      1 <0>         0.0814
     14 C13         3.5414    3.5345   -0.0128 C.ar      1 <0>        -0.0823
     15 C14         2.3130    4.1590    0.0024 C.ar      1 <0>        -0.1207
     16 C15         1.1482    3.4011    0.0095 C.ar      1 <0>         0.1374
     17 O2         -0.0635    3.9966    0.0239 O.3       1 <0>        -0.2189
     18 O3          4.8500    1.5446   -0.0366 O.3       1 <0>        -0.4913
     19 O4         -6.0719    6.0755    0.0872 O.3       1 <0>        -0.4967
     20 H1         -3.6945    2.2449    0.0369 H         1 <0>         0.1417
     21 H2         -5.8239    3.4704    0.0722 H         1 <0>         0.1414
     22 H3         -3.7015    7.1841    0.0729 H         1 <0>         0.1394
     23 H4         -1.5646    5.9713    0.0470 H         1 <0>         0.1405
     24 H5         -2.1739    1.4063    0.0194 H         1 <0>         0.1635
     25 H6          2.5502    0.2980   -0.0216 H         1 <0>         0.1496
     26 H7          4.4434    4.1285   -0.0182 H         1 <0>         0.1489
     27 H8          2.2555    5.2374    0.0085 H         1 <0>         0.1502
     28 H9          5.2110    1.3656    0.8424 H         1 <0>         0.3948
     29 H10        -6.4209    6.2749   -0.7923 H         1 <0>         0.3986
@<TRIPOS>BOND
     1    1    6 ar
     2    1    2 ar
     3    1   20 1
     4    2    3 ar
     5    2   21 1
     6    3    4 ar
     7    3   19 1
     8    4    5 ar
     9    4   22 1
    10    5    6 ar
    11    5   23 1
    12    6    7 1
    13    7   17 1
    14    7    8 2
    15    8    9 1
    16    8   24 1
    17    9   10 2
    18    9   11 1
    19   11   16 ar
    20   11   12 ar
    21   12   13 ar
    22   12   25 1
    23   13   14 ar
    24   13   18 1
    25   14   15 ar
    26   14   26 1
    27   15   16 ar
    28   15   27 1
    29   16   17 1
    30   18   28 1
    31   19   29 1
@<TRIPOS>MOLECULE
ZINC00113304
   32    34     0     0     0
SMALL
USER_CHARGES

@<TRIPOS>ATOM
      1 C1         -5.0342    5.1757    1.0297 C.3       1 <0>         0.0256
      2 O1         -4.8838    4.1482    0.0481 O.3       1 <0>        -0.3166
      3 C2         -3.7050    3.4717    0.0385 C.ar      1 <0>         0.1329
      4 C3         -3.4939    2.4613   -0.8895 C.ar      1 <0>        -0.1505
      5 C4         -2.2988    1.7726   -0.9014 C.ar      1 <0>        -0.0706
      6 C5         -1.3027    2.0923    0.0196 C.ar      1 <0>        -0.0672
      7 C6         -1.5200    3.1036    0.9539 C.ar      1 <0>        -0.0462
      8 C7         -2.7150    3.7924    0.9571 C.ar      1 <0>        -0.2061
      9 C8         -0.0163    1.3537    0.0095 C.2       1 <0>        -0.2376
     10 C9          0.0021   -0.0041    0.0020 C.2       1 <0>         0.1307
     11 O2          1.1375   -0.7073   -0.0126 O.3       1 <0>        -0.2190
     12 C10         2.3595   -0.1392   -0.0211 C.ar      1 <0>         0.1653
     13 C11         3.5041   -0.9258   -0.0358 C.ar      1 <0>        -0.1729
     14 C12         4.7516   -0.3258   -0.0429 C.ar      1 <0>         0.1758
     15 C13         4.8713    1.0625   -0.0366 C.ar      1 <0>        -0.1735
     16 C14         3.7561    1.8504   -0.0228 C.ar      1 <0>        -0.0123
     17 C15         2.4913    1.2604   -0.0149 C.ar      1 <0>        -0.2321
     18 C16         1.2656    2.0790    0.0011 C.2       1 <0>         0.4288
     19 O3          1.3107    3.2971    0.0076 O.2       1 <0>        -0.4522
     20 O4          5.8686   -1.0971   -0.0562 O.3       1 <0>        -0.4910
     21 H1         -4.9363    4.7438    2.0257 H         1 <0>         0.0567
     22 H2         -4.2634    5.9325    0.8845 H         1 <0>         0.0571
     23 H3         -6.0177    5.6345    0.9278 H         1 <0>         0.1019
     24 H4         -4.2660    2.2143   -1.6031 H         1 <0>         0.1348
     25 H5         -2.1352    0.9863   -1.6235 H         1 <0>         0.1314
     26 H6         -0.7519    3.3503    1.6720 H         1 <0>         0.1257
     27 H7         -2.8824    4.5789    1.6781 H         1 <0>         0.1313
     28 H8         -0.9379   -0.5359    0.0085 H         1 <0>         0.2041
     29 H9          3.4210   -2.0026   -0.0410 H         1 <0>         0.1516
     30 H10         5.8508    1.5175   -0.0431 H         1 <0>         0.1438
     31 H11         3.8524    2.9261   -0.0176 H         1 <0>         0.1477
     32 H12         6.1996   -1.3251    0.8233 H         1 <0>         0.4026
@<TRIPOS>BOND
     1    1    2 1
     2    1   21 1
     3    1   22 1
     4    1   23 1
     5    2    3 1
     6    3    8 ar
     7    3    4 ar
     8    4    5 ar
     9    4   24 1
    10    5    6 ar
    11    5   25 1
    12    6    7 ar
    13    6    9 1
    14    7    8 ar
    15    7   26 1
    16    8   27 1
    17    9   18 1
    18    9   10 2
    19   10   11 1
    20   10   28 1
    21   11   12 1
    22   12   17 ar
    23   12   13 ar
    24   13   14 ar
    25   13   29 1
    26   14   15 ar
    27   14   20 1
    28   15   16 ar
    29   15   30 1
    30   16   17 ar
    31   16   31 1
    32   17   18 1
    33   18   19 2
    34   20   32 1
@<TRIPOS>MOLECULE
ZINC00155246
   36    37     0     0     0
SMALL
USER_CHARGES

@<TRIPOS>ATOM
      1 C1         -1.4574    3.3548    1.7584 C.3       1 <0>         0.0260
      2 O1         -0.4550    3.1311    0.7648 O.3       1 <0>        -0.3165
      3 C2         -0.0496    1.8479    0.5753 C.ar      1 <0>         0.1345
      4 C3          0.9206    1.5587   -0.3733 C.ar      1 <0>        -0.1463
      5 C4          1.3313    0.2535   -0.5638 C.ar      1 <0>        -0.0868
      6 C5          0.7760   -0.7641    0.1897 C.ar      1 <0>        -0.1276
      7 C6         -0.1913   -0.4785    1.1355 C.ar      1 <0>        -0.0543
      8 C7         -0.6051    0.8251    1.3301 C.ar      1 <0>        -0.2071
      9 C8          1.2256   -2.1871   -0.0204 C.3       1 <0>         0.0117
     10 C9          2.0790   -2.6213    1.1432 C.ar      1 <0>        -0.1384
     11 C10         3.0501   -1.7725    1.6416 C.ar      1 <0>        -0.0443
     12 C11         3.8299   -2.1661    2.7118 C.ar      1 <0>        -0.2111
     13 C12         3.6454   -3.4183    3.2796 C.ar      1 <0>         0.1416
     14 C13         2.6742   -4.2703    2.7741 C.ar      1 <0>        -0.1546
     15 C14         1.8935   -3.8701    1.7071 C.ar      1 <0>        -0.0533
     16 O2          4.4144   -3.8096    4.3296 O.3       1 <0>        -0.3159
     17 C15         5.3944   -2.8808    4.7976 C.3       1 <0>         0.0258
     18 C16         2.0398   -2.2791   -1.3125 C.3       1 <0>         0.1456
     19 Cl1         3.5814   -1.3646   -1.1177 Cl        1 <0>        -0.0799
     20 Cl2         2.4075   -4.0078   -1.6693 Cl        1 <0>        -0.0807
     21 Cl3         1.0901   -1.5734   -2.6729 Cl        1 <0>        -0.0801
     22 H1         -2.3578    2.7986    1.4976 H         1 <0>         0.0567
     23 H2         -1.0899    3.0175    2.7276 H         1 <0>         0.0564
     24 H3         -1.6890    4.4187    1.8078 H         1 <0>         0.1015
     25 H4          1.3575    2.3537   -0.9593 H         1 <0>         0.1327
     26 H5          2.0865    0.0278   -1.3021 H         1 <0>         0.1416
     27 H6         -0.6241   -1.2752    1.7223 H         1 <0>         0.1274
     28 H7         -1.3610    1.0476    2.0686 H         1 <0>         0.1307
     29 H8          0.3533   -2.8366   -0.0936 H         1 <0>         0.1241
     30 H9          3.1963   -0.7995    1.1963 H         1 <0>         0.1294
     31 H10         4.5851   -1.5008    3.1038 H         1 <0>         0.1296
     32 H11         2.5289   -5.2458    3.2142 H         1 <0>         0.1339
     33 H12         1.1373   -4.5330    1.3132 H         1 <0>         0.1318
     34 H13         6.0926   -2.6526    3.9922 H         1 <0>         0.0570
     35 H14         4.9011   -1.9644    5.1214 H         1 <0>         0.0568
     36 H15         5.9372   -3.3171    5.6362 H         1 <0>         0.1019
@<TRIPOS>BOND
     1    1    2 1
     2    1   22 1
     3    1   23 1
     4    1   24 1
     5    2    3 1
     6    3    8 ar
     7    3    4 ar
     8    4    5 ar
     9    4   25 1
    10    5    6 ar
    11    5   26 1
    12    6    7 ar
    13    6    9 1
    14    7    8 ar
    15    7   27 1
    16    8   28 1
    17    9   10 1
    18    9   18 1
    19    9   29 1
    20   10   15 ar
    21   10   11 ar
    22   11   12 ar
    23   11   30 1
    24   12   13 ar
    25   12   31 1
    26   13   14 ar
    27   13   16 1
    28   14   15 ar
    29   14   32 1
    30   15   33 1
    31   16   17 1
    32   17   34 1
    33   17   35 1
    34   17   36 1
    35   18   19 1
    36   18   20 1
    37   18   21 1
@<TRIPOS>MOLECULE
ZINC00283101
   30    31     0     0     0
SMALL
USER_CHARGES

@<TRIPOS>ATOM
      1 C1          1.3310    0.2534   -0.5640 C.ar      1 <0>        -0.1095
      2 C2          0.9199    1.5585   -0.3742 C.ar      1 <0>        -0.1395
      3 C3         -0.0503    1.8479    0.5743 C.ar      1 <0>         0.1137
      4 C4         -0.6052    0.8253    1.3299 C.ar      1 <0>        -0.1433
      5 C5         -0.1911   -0.4782    1.1359 C.ar      1 <0>        -0.0786
      6 C6          0.7760   -0.7641    0.1900 C.ar      1 <0>        -0.1002
      7 C7          1.2256   -2.1871   -0.0199 C.3       1 <0>         0.0039
      8 C8          2.0793   -2.6210    1.1436 C.ar      1 <0>        -0.1103
      9 C9          3.0505   -1.7720    1.6415 C.ar      1 <0>        -0.0694
     10 C10         3.8306   -2.1652    2.7116 C.ar      1 <0>        -0.1475
     11 C11         3.6463   -3.4173    3.2799 C.ar      1 <0>         0.1211
     12 C12         2.6749   -4.2695    2.7749 C.ar      1 <0>        -0.1476
     13 C13         1.8939   -3.8696    1.7079 C.ar      1 <0>        -0.0757
     14 O1          4.4156   -3.8082    4.3298 O.3       1 <0>        -0.4994
     15 C14         2.0395   -2.2794   -1.3121 C.3       1 <0>         0.1442
     16 Cl1         3.5811   -1.3648   -1.1180 Cl        1 <0>        -0.0771
     17 Cl2         2.4072   -4.0082   -1.6686 Cl        1 <0>        -0.0792
     18 Cl3         1.0895   -1.5741   -2.6726 Cl        1 <0>        -0.0785
     19 O2         -0.4560    3.1311    0.7633 O.3       1 <0>        -0.4993
     20 H1          2.0862    0.0275   -1.3023 H         1 <0>         0.1401
     21 H2          1.3567    2.3534   -0.9605 H         1 <0>         0.1312
     22 H3         -1.3609    1.0480    2.0687 H         1 <0>         0.1322
     23 H4         -0.6233   -1.2748    1.7234 H         1 <0>         0.1296
     24 H5          0.3533   -2.8367   -0.0927 H         1 <0>         0.1275
     25 H6          3.1963   -0.7990    1.1961 H         1 <0>         0.1312
     26 H7          4.5859   -1.4999    3.1032 H         1 <0>         0.1311
     27 H8          2.5298   -5.2448    3.2153 H         1 <0>         0.1325
     28 H9          1.1376   -4.5326    1.3144 H         1 <0>         0.1300
     29 H10         5.2294   -4.2631    4.0732 H         1 <0>         0.3940
     30 H11        -1.2027    3.3934    0.2076 H         1 <0>         0.3929
@<TRIPOS>BOND
     1    1    6 ar
     2    1    2 ar
     3    1   20 1
     4    2    3 ar
     5    2   21 1
     6    3    4 ar
     7    3   19 1
     8    4    5 ar
     9    4   22 1
    10    5    6 ar
    11    5   23 1
    12    6    7 1
    13    7    8 1
    14    7   15 1
    15    7   24 1
    16    8   13 ar
    17    8    9 ar
    18    9   10 ar
    19    9   25 1
    20   10   11 ar
    21   10   26 1
    22   11   12 ar
    23   11   14 1
    24   12   13 ar
    25   12   27 1
    26   13   28 1
    27   14   29 1
    28   15   16 1
    29   15   17 1
    30   15   18 1
    31   19   30 1
@<TRIPOS>MOLECULE
ZINC00388660
   32    34     0     0     0
SMALL
USER_CHARGES

@<TRIPOS>ATOM
      1 C1          1.1534    3.4471    0.0091 C.ar      1 <0>        -0.0933
      2 C2          1.1748    2.0659    0.0019 C.ar      1 <0>        -0.1419
      3 C3         -0.0164    1.3548    0.0095 C.ar      1 <0>         0.1060
      4 C4         -1.2264    2.0332    0.0189 C.ar      1 <0>        -0.1413
      5 C5         -1.2424    3.4145    0.0313 C.ar      1 <0>        -0.0980
      6 C6         -0.0539    4.1209    0.0237 C.ar      1 <0>        -0.0887
      7 C7         -0.0743    5.6278    0.0320 C.3       1 <0>        -0.0840
      8 H1          0.9467    6.0091    0.0146 H         1 <0>         0.0955
      9 C8         -0.8383    6.1402   -1.1914 C.3       1 <0>        -0.0688
     10 C9         -1.1148    7.6144   -1.0364 C.ar      1 <0>        -0.1691
     11 C10        -1.4541    8.3495   -2.1608 C.ar      1 <0>        -0.0665
     12 C11        -1.7217    9.6995   -2.0577 C.ar      1 <0>        -0.1750
     13 C12        -1.6517   10.3268   -0.8216 C.ar      1 <0>         0.1386
     14 C13        -1.3116    9.5956    0.3038 C.ar      1 <0>        -0.1761
     15 C14        -1.0400    8.2359    0.1983 C.ar      1 <0>         0.1475
     16 O1         -0.7048    7.5535    1.3241 O.3       1 <0>        -0.3109
     17 C15        -0.7919    6.1283    1.2921 C.3       1 <0>         0.0705
     18 O2         -1.9169   11.6555   -0.7161 O.3       1 <0>        -0.4961
     19 O3          0.0021   -0.0041    0.0020 O.3       1 <0>        -0.4998
     20 H2          2.0805    4.0012    0.0028 H         1 <0>         0.1287
     21 H3          2.1181    1.5400   -0.0092 H         1 <0>         0.1308
     22 H4         -2.1551    1.4819    0.0203 H         1 <0>         0.1305
     23 H5         -2.1842    3.9431    0.0428 H         1 <0>         0.1269
     24 H6         -0.2403    5.9755   -2.0877 H         1 <0>         0.0861
     25 H7         -1.7817    5.6017   -1.2816 H         1 <0>         0.0819
     26 H8         -1.5091    7.8633   -3.1236 H         1 <0>         0.1307
     27 H9         -1.9848   10.2672   -2.9380 H         1 <0>         0.1317
     28 H10        -1.2571   10.0825    1.2663 H         1 <0>         0.1372
     29 H11        -1.8385    5.8251    1.2635 H         1 <0>         0.0685
     30 H12        -0.3125    5.7113    2.1777 H         1 <0>         0.1117
     31 H13        -2.8467   11.8587   -0.5453 H         1 <0>         0.3943
     32 H14         0.0158   -0.4021    0.8832 H         1 <0>         0.3926
@<TRIPOS>BOND
     1    1    6 ar
     2    1    2 ar
     3    1   20 1
     4    2    3 ar
     5    2   21 1
     6    3    4 ar
     7    3   19 1
     8    4    5 ar
     9    4   22 1
    10    5    6 ar
    11    5   23 1
    12    6    7 1
    13    7    8 1
    14    7   17 1
    15    7    9 1
    16    9   10 1
    17    9   24 1
    18    9   25 1
    19   10   15 ar
    20   10   11 ar
    21   11   12 ar
    22   11   26 1
    23   12   13 ar
    24   12   27 1
    25   13   14 ar
    26   13   18 1
    27   14   15 ar
    28   14   28 1
    29   15   16 1
    30   16   17 1
    31   17   29 1
    32   17   30 1
    33   18   31 1
    34   19   32 1
@<TRIPOS>MOLECULE
ZINC00508310
   28    29     0     0     0
SMALL
USER_CHARGES

@<TRIPOS>ATOM
      1 C1         -0.0166    1.3748    0.0096 C.ar      1 <0>        -0.0753
      2 C2          0.0021   -0.0041    0.0020 C.ar      1 <0>        -0.1437
      3 C3          1.2127   -0.6833   -0.0137 C.ar      1 <0>         0.1176
      4 C4          2.4082    0.0225   -0.0213 C.ar      1 <0>        -0.1446
      5 C5          2.3966    1.4015   -0.0133 C.ar      1 <0>        -0.0731
      6 C6          1.1823    2.0869    0.0020 C.ar      1 <0>        -0.0656
      7 C7          1.1660    3.5691    0.0096 C.2       1 <0>        -0.0039
      8 C8          0.6774    4.2292    1.0708 C.2       1 <0>        -0.0287
      9 Cl1         0.6583    5.9651    1.0797 Cl        1 <0>        -0.0205
     10 Cl2         0.0644    3.3474    2.4347 Cl        1 <0>        -0.0204
     11 C9          1.6895    4.3220   -1.1550 C.ar      1 <0>        -0.0655
     12 C10         1.0546    4.2246   -2.3927 C.ar      1 <0>        -0.0732
     13 C11         1.5408    4.9310   -3.4728 C.ar      1 <0>        -0.1445
     14 C12         2.6680    5.7290   -3.3317 C.ar      1 <0>         0.1176
     15 C13         3.3055    5.8241   -2.1022 C.ar      1 <0>        -0.1437
     16 C14         2.8212    5.1248   -1.0167 C.ar      1 <0>        -0.0753
     17 O1          3.1481    6.4190   -4.3995 O.3       1 <0>        -0.4989
     18 O2          1.2277   -2.0422   -0.0211 O.3       1 <0>        -0.4989
     19 H1         -0.9588    1.9027    0.0169 H         1 <0>         0.1295
     20 H2         -0.9261   -0.5561    0.0079 H         1 <0>         0.1337
     21 H3          3.3483   -0.5090   -0.0331 H         1 <0>         0.1335
     22 H4          3.3269    1.9500   -0.0189 H         1 <0>         0.1298
     23 H5          0.1807    3.5999   -2.5044 H         1 <0>         0.1298
     24 H6          1.0467    4.8597   -4.4305 H         1 <0>         0.1335
     25 H7          4.1820    6.4460   -1.9957 H         1 <0>         0.1337
     26 H8          3.3176    5.1992   -0.0604 H         1 <0>         0.1295
     27 H9          3.8003    5.9319   -4.9216 H         1 <0>         0.3938
     28 H10         1.2232   -2.4307   -0.9066 H         1 <0>         0.3937
@<TRIPOS>BOND
     1    1    6 ar
     2    1    2 ar
     3    1   19 1
     4    2    3 ar
     5    2   20 1
     6    3    4 ar
     7    3   18 1
     8    4    5 ar
     9    4   21 1
    10    5    6 ar
    11    5   22 1
    12    6    7 1
    13    7    8 2
    14    7   11 1
    15    8    9 1
    16    8   10 1
    17   11   16 ar
    18   11   12 ar
    19   12   13 ar
    20   12   23 1
    21   13   14 ar
    22   13   24 1
    23   14   15 ar
    24   14   17 1
    25   15   16 ar
    26   15   25 1
    27   16   26 1
    28   17   27 1
    29   18   28 1
@<TRIPOS>MOLECULE
ZINC00585979
   45    48     0     0     0
SMALL
USER_CHARGES

@<TRIPOS>ATOM
      1 C1          5.8332    6.3996   -0.7611 C.3       1 <0>        -0.1312
      2 C2          4.3841    5.9250   -0.9550 C.3       1 <0>        -0.0464
      3 C3          4.4247    4.4956   -1.4434 C.3       1 <0>        -0.1054
      4 C4          3.0418    3.8519   -1.4374 C.3       1 <0>        -0.1115
      5 C5          2.4923    3.8833   -0.0068 C.3       1 <0>        -0.0380
      6 H1          3.1869    3.3748    0.6647 H         1 <0>         0.0838
      7 C6          1.1604    3.1740    0.0108 C.ar      1 <0>        -0.0787
      8 C7          1.1697    1.7849    0.0005 C.ar      1 <0>        -0.0997
      9 C8         -0.0126    1.0760    0.0080 C.ar      1 <0>        -0.1470
     10 C9         -1.2215    1.7571    0.0174 C.ar      1 <0>         0.1029
     11 C10        -1.2290    3.1410    0.0333 C.ar      1 <0>        -0.1480
     12 C11        -0.0366    3.8533    0.0308 C.ar      1 <0>        -0.0575
     13 C12        -0.1201    5.3564    0.0479 C.3       1 <0>        -0.0833
     14 C13         1.2113    5.9815   -0.3769 C.3       1 <0>        -0.1236
     15 C14         2.3278    5.3317    0.4354 C.3       1 <0>        -0.0731
     16 H2          2.0050    5.3158    1.4858 H         1 <0>         0.0689
     17 C15         3.6318    6.1069    0.3698 C.3       1 <0>        -0.0669
     18 H3          4.2794    5.8363    1.2217 H         1 <0>         0.0858
     19 C16         3.3090    7.6247    0.3845 C.3       1 <0>        -0.1527
     20 C17         3.1396    8.0297   -1.0926 C.3       1 <0>         0.0667
     21 H4          2.0853    8.1893   -1.3243 H         1 <0>         0.0602
     22 C18         3.6976    6.8740   -1.9455 C.3       1 <0>         0.1207
     23 H5          2.8920    6.3625   -2.4687 H         1 <0>         0.0666
     24 O1          4.6515    7.3744   -2.8864 O.3       1 <0>        -0.5451
     25 O2          3.8709    9.2301   -1.3591 O.3       1 <0>        -0.5555
     26 O3         -2.3926    1.0678    0.0113 O.3       1 <0>        -0.5000
     27 H6          6.3080    5.8073    0.0210 H         1 <0>         0.0465
     28 H7          6.3835    6.2774   -1.6941 H         1 <0>         0.0627
     29 H8          5.8357    7.4508   -0.4729 H         1 <0>         0.0595
     30 H9          4.8227    4.4771   -2.4594 H         1 <0>         0.0689
     31 H10         5.0890    3.9183   -0.7972 H         1 <0>         0.0668
     32 H11         3.1240    2.8146   -1.7713 H         1 <0>         0.0660
     33 H12         2.3762    4.3913   -2.1075 H         1 <0>         0.0662
     34 H13         2.1117    1.2567   -0.0125 H         1 <0>         0.1257
     35 H14         0.0021   -0.0041    0.0020 H         1 <0>         0.1279
     36 H15        -2.1703    3.6708    0.0450 H         1 <0>         0.1259
     37 H16        -0.3651    5.6919    1.0555 H         1 <0>         0.0773
     38 H17        -0.9011    5.6811   -0.6391 H         1 <0>         0.0759
     39 H18         1.1687    7.0523   -0.1732 H         1 <0>         0.0750
     40 H19         1.3658    5.8164   -1.4407 H         1 <0>         0.0701
     41 H20         2.3961    7.8237    0.9490 H         1 <0>         0.0733
     42 H21         4.1345    8.1856    0.8365 H         1 <0>         0.0764
     43 H22         4.2862    8.0112   -3.5158 H         1 <0>         0.3773
     44 H23         3.5762    9.9930   -0.8431 H         1 <0>         0.3769
     45 H24        -2.7303    0.8584    0.8928 H         1 <0>         0.3902
@<TRIPOS>BOND
     1    1    2 1
     2    1   27 1
     3    1   28 1
     4    1   29 1
     5    2   17 1
     6    2   22 1
     7    2    3 1
     8    3    4 1
     9    3   30 1
    10    3   31 1
    11    4    5 1
    12    4   32 1
    13    4   33 1
    14    5    6 1
    15    5   15 1
    16    5    7 1
    17    7   12 ar
    18    7    8 ar
    19    8    9 ar
    20    8   34 1
    21    9   10 ar
    22    9   35 1
    23   10   11 ar
    24   10   26 1
    25   11   12 ar
    26   11   36 1
    27   12   13 1
    28   13   14 1
    29   13   37 1
    30   13   38 1
    31   14   15 1
    32   14   39 1
    33   14   40 1
    34   15   16 1
    35   15   17 1
    36   17   18 1
    37   17   19 1
    38   19   20 1
    39   19   41 1
    40   19   42 1
    41   20   21 1
    42   20   22 1
    43   20   25 1
    44   22   23 1
    45   22   24 1
    46   24   43 1
    47   25   44 1
    48   26   45 1
@<TRIPOS>MOLECULE
ZINC01070102
   44    47     0     0     0
SMALL
USER_CHARGES

@<TRIPOS>ATOM
      1 C1          1.9987    1.7568   -1.4363 C.3       1 <0>        -0.1320
      2 C2          1.4707    1.9145   -0.0017 C.3       1 <0>        -0.0459
      3 C3          1.7533    3.3291    0.4466 C.3       1 <0>        -0.1048
      4 C4          1.0573    3.6624    1.7617 C.3       1 <0>        -0.1105
      5 C5         -0.4542    3.4771    1.5821 C.3       1 <0>        -0.0382
      6 H1         -0.8061    4.1099    0.7654 H         1 <0>         0.0826
      7 C6         -1.1390    3.8779    2.8655 C.ar      1 <0>        -0.0784
      8 C7         -1.2872    5.2358    3.1181 C.ar      1 <0>        -0.1003
      9 C8         -1.8967    5.6713    4.2755 C.ar      1 <0>        -0.1474
     10 C9         -2.3661    4.7443    5.1949 C.ar      1 <0>         0.1024
     11 C10        -2.2240    3.3914    4.9391 C.ar      1 <0>        -0.1481
     12 C11        -1.6105    2.9552    3.7715 C.ar      1 <0>        -0.0570
     13 C12        -1.4950    1.4699    3.5547 C.3       1 <0>        -0.0843
     14 C13        -0.4509    1.1568    2.4796 C.3       1 <0>        -0.1209
     15 C14        -0.7460    2.0186    1.2568 C.3       1 <0>        -0.0713
     16 H2         -1.8240    1.9430    1.0554 H         1 <0>         0.0665
     17 C15        -0.0190    1.5472    0.0105 C.3       1 <0>        -0.0697
     18 H3         -0.5186    1.9361   -0.8920 H         1 <0>         0.0822
     19 C16         0.0021   -0.0041    0.0020 C.3       1 <0>        -0.1176
     20 C17         1.2919   -0.4099    0.7407 C.3       1 <0>        -0.1579
     21 C18         2.1544    0.8603    0.8780 C.3       1 <0>         0.1100
     22 H4          2.1877    1.1893    1.9142 H         1 <0>         0.0611
     23 O1          3.4785    0.6078    0.4007 O.3       1 <0>        -0.5623
     24 O2         -2.9614    5.1631    6.3425 O.3       1 <0>        -0.5002
     25 H5          1.4461    2.4200   -2.1018 H         1 <0>         0.0478
     26 H6          3.0576    2.0140   -1.4641 H         1 <0>         0.0623
     27 H7          1.8670    0.7245   -1.7605 H         1 <0>         0.0542
     28 H8          2.8308    3.4547    0.5714 H         1 <0>         0.0670
     29 H9          1.4093    4.0219   -0.3241 H         1 <0>         0.0649
     30 H10         1.4227    3.0100    2.5529 H         1 <0>         0.0659
     31 H11         1.2654    4.7014    2.0296 H         1 <0>         0.0645
     32 H12        -0.9197    5.9557    2.4017 H         1 <0>         0.1253
     33 H13        -2.0084    6.7289    4.4651 H         1 <0>         0.1276
     34 H14        -2.5918    2.6699    5.6533 H         1 <0>         0.1258
     35 H15        -1.2004    0.9914    4.4878 H         1 <0>         0.0752
     36 H16        -2.4609    1.0765    3.2377 H         1 <0>         0.0768
     37 H17         0.5428    1.3728    2.8682 H         1 <0>         0.0689
     38 H18        -0.5226    0.0985    2.2258 H         1 <0>         0.0782
     39 H19        -0.8780   -0.4092    0.5060 H         1 <0>         0.0698
     40 H20         0.0239   -0.3793   -1.0274 H         1 <0>         0.0642
     41 H21         1.0576   -0.8137    1.7251 H         1 <0>         0.0686
     42 H22         1.8324   -1.1620    0.1600 H         1 <0>         0.0704
     43 H23         3.9482   -0.0816    0.8899 H         1 <0>         0.3748
     44 H24        -3.9186    5.2796    6.2692 H         1 <0>         0.3900
@<TRIPOS>BOND
     1    1    2 1
     2    1   25 1
     3    1   26 1
     4    1   27 1
     5    2   17 1
     6    2   21 1
     7    2    3 1
     8    3    4 1
     9    3   28 1
    10    3   29 1
    11    4    5 1
    12    4   30 1
    13    4   31 1
    14    5    6 1
    15    5   15 1
    16    5    7 1
    17    7   12 ar
    18    7    8 ar
    19    8    9 ar
    20    8   32 1
    21    9   10 ar
    22    9   33 1
    23   10   11 ar
    24   10   24 1
    25   11   12 ar
    26   11   34 1
    27   12   13 1
    28   13   14 1
    29   13   35 1
    30   13   36 1
    31   14   15 1
    32   14   37 1
    33   14   38 1
    34   15   16 1
    35   15   17 1
    36   17   18 1
    37   17   19 1
    38   19   20 1
    39   19   39 1
    40   19   40 1
    41   20   21 1
    42   20   41 1
    43   20   42 1
    44   21   22 1
    45   21   23 1
    46   23   43 1
    47   24   44 1
@<TRIPOS>MOLECULE
ZINC01510316
   28    29     0     0     0
SMALL
USER_CHARGES

@<TRIPOS>ATOM
      1 C1         -0.0126    1.0758    0.0080 C.ar      1 <0>        -0.0903
      2 C2         -1.2146    1.7497    0.0173 C.ar      1 <0>        -0.1439
      3 C3         -1.2346    3.1384    0.0297 C.ar      1 <0>         0.1065
      4 C4         -0.0447    3.8547    0.0222 C.ar      1 <0>        -0.1431
      5 C5          1.1623    3.1898    0.0076 C.ar      1 <0>        -0.0965
      6 C6          1.1876    1.7922    0.0003 C.ar      1 <0>        -0.0666
      7 C7          2.4755    1.0765   -0.0148 C.2       1 <0>        -0.1056
      8 C8          3.6274    1.7670   -0.0221 C.2       1 <0>        -0.1056
      9 C9          4.9152    1.0512   -0.0372 C.ar      1 <0>        -0.0666
     10 C10         4.9407   -0.3463   -0.0382 C.ar      1 <0>        -0.0965
     11 C11         6.1476   -1.0112   -0.0572 C.ar      1 <0>        -0.1431
     12 C12         7.3375   -0.2949   -0.0652 C.ar      1 <0>         0.1065
     13 C13         7.3174    1.0938   -0.0585 C.ar      1 <0>        -0.1439
     14 C14         6.1155    1.7677   -0.0448 C.ar      1 <0>        -0.0903
     15 O1          8.5250   -0.9549   -0.0791 O.3       1 <0>        -0.4998
     16 O2         -2.4222    3.7984    0.0437 O.3       1 <0>        -0.4997
     17 H1          0.0021   -0.0041    0.0020 H         1 <0>         0.1302
     18 H2         -2.1425    1.1970    0.0190 H         1 <0>         0.1312
     19 H3         -0.0653    4.9345    0.0282 H         1 <0>         0.1309
     20 H4          2.0870    3.7476    0.0014 H         1 <0>         0.1301
     21 H5          2.4931   -0.0033   -0.0200 H         1 <0>         0.1246
     22 H6          3.6097    2.8468   -0.0169 H         1 <0>         0.1246
     23 H7          4.0159   -0.9041   -0.0278 H         1 <0>         0.1301
     24 H8          6.1682   -2.0910   -0.0621 H         1 <0>         0.1309
     25 H9          8.2453    1.6465   -0.0644 H         1 <0>         0.1312
     26 H10         6.1008    2.8476   -0.0397 H         1 <0>         0.1302
     27 H11         8.8769   -1.1501    0.8002 H         1 <0>         0.3923
     28 H12        -2.7740    3.9936   -0.8356 H         1 <0>         0.3922
@<TRIPOS>BOND
     1    1    6 ar
     2    1    2 ar
     3    1   17 1
     4    2    3 ar
     5    2   18 1
     6    3    4 ar
     7    3   16 1
     8    4    5 ar
     9    4   19 1
    10    5    6 ar
    11    5   20 1
    12    6    7 1
    13    7    8 2
    14    7   21 1
    15    8    9 1
    16    8   22 1
    17    9   14 ar
    18    9   10 ar
    19   10   11 ar
    20   10   23 1
    21   11   12 ar
    22   11   24 1
    23   12   13 ar
    24   12   15 1
    25   13   14 ar
    26   13   25 1
    27   14   26 1
    28   15   27 1
    29   16   28 1
@<TRIPOS>MOLECULE
ZINC01566834
   45    46     0     0     0
SMALL
USER_CHARGES

@<TRIPOS>ATOM
      1 C1          3.2840    1.7911    3.6874 C.3       1 <0>        -0.1518
      2 C2          2.5877    1.1103    2.5074 C.3       1 <0>        -0.1153
      3 C3          3.2692    1.5284    1.2029 C.3       1 <0>        -0.0403
      4 H1          3.2814    2.6160    1.1317 H         1 <0>         0.0806
      5 C4          4.6834    1.0080    1.1856 C.ar      1 <0>        -0.0736
      6 C5          4.9201   -0.3505    1.2866 C.ar      1 <0>        -0.0989
      7 C6          6.2153   -0.8305    1.2653 C.ar      1 <0>        -0.1419
      8 C7          7.2794    0.0527    1.1544 C.ar      1 <0>         0.0979
      9 C8          7.0394    1.4157    1.0589 C.ar      1 <0>        -0.1421
     10 C9          5.7421    1.8903    1.0745 C.ar      1 <0>        -0.1008
     11 O1          8.5547   -0.4166    1.1397 O.3       1 <0>        -0.5010
     12 C10         2.4977    0.9483    0.0158 C.3       1 <0>        -0.0353
     13 H2          2.4938   -0.1397    0.0817 H         1 <0>         0.0786
     14 C11         3.1713    1.3777   -1.2891 C.3       1 <0>        -0.1161
     15 C12         2.4782    0.6945   -2.4697 C.3       1 <0>        -0.1508
     16 C13         1.0798    1.4581    0.0406 C.ar      1 <0>        -0.1030
     17 C14         0.0273    0.5665    0.1359 C.ar      1 <0>        -0.0766
     18 C15        -1.2736    1.0310    0.1531 C.ar      1 <0>        -0.2051
     19 C16        -1.5231    2.3941    0.0863 C.ar      1 <0>         0.1217
     20 C17        -0.4653    3.2867   -0.0088 C.ar      1 <0>        -0.1484
     21 C18         0.8335    2.8168   -0.0314 C.ar      1 <0>        -0.0754
     22 O2         -2.8018    2.8538    0.1082 O.3       1 <0>        -0.3190
     23 C19        -3.8406    1.8776    0.2076 C.3       1 <0>         0.0274
     24 H3          4.3319    1.4921    3.7128 H         1 <0>         0.0544
     25 H4          3.2177    2.8731    3.5734 H         1 <0>         0.0530
     26 H5          2.7985    1.4933    4.6168 H         1 <0>         0.0526
     27 H6          1.5399    1.4094    2.4820 H         1 <0>         0.0691
     28 H7          2.6541    0.0283    2.6214 H         1 <0>         0.0622
     29 H8          4.0916   -1.0372    1.3781 H         1 <0>         0.1244
     30 H9          6.3995   -1.8921    1.3395 H         1 <0>         0.1266
     31 H10         7.8661    2.1053    0.9728 H         1 <0>         0.1269
     32 H11         5.5548    2.9513    1.0002 H         1 <0>         0.1248
     33 H12         8.9589   -0.4845    2.0156 H         1 <0>         0.3900
     34 H13         3.0941    2.4594   -1.3990 H         1 <0>         0.0631
     35 H14         4.2221    1.0887   -1.2679 H         1 <0>         0.0673
     36 H15         2.4652   -0.3836   -2.3090 H         1 <0>         0.0521
     37 H16         1.4553    1.0618   -2.5527 H         1 <0>         0.0546
     38 H17         3.0203    0.9184   -3.3884 H         1 <0>         0.0525
     39 H18         0.2223   -0.4942    0.1924 H         1 <0>         0.1222
     40 H19        -2.0955    0.3338    0.2227 H         1 <0>         0.1264
     41 H20        -0.6571    4.3480   -0.0648 H         1 <0>         0.1291
     42 H21         1.6573    3.5112   -0.1058 H         1 <0>         0.1269
     43 H22        -3.7870    1.2018   -0.6459 H         1 <0>         0.0552
     44 H23        -3.7179    1.3090    1.1295 H         1 <0>         0.0553
     45 H24        -4.8093    2.3773    0.2151 H         1 <0>         0.1003
@<TRIPOS>BOND
     1    1    2 1
     2    1   24 1
     3    1   25 1
     4    1   26 1
     5    2    3 1
     6    2   27 1
     7    2   28 1
     8    3    4 1
     9    3    5 1
    10    3   12 1
    11    5   10 ar
    12    5    6 ar
    13    6    7 ar
    14    6   29 1
    15    7    8 ar
    16    7   30 1
    17    8    9 ar
    18    8   11 1
    19    9   10 ar
    20    9   31 1
    21   10   32 1
    22   11   33 1
    23   12   13 1
    24   12   14 1
    25   12   16 1
    26   14   15 1
    27   14   34 1
    28   14   35 1
    29   15   36 1
    30   15   37 1
    31   15   38 1
    32   16   21 ar
    33   16   17 ar
    34   17   18 ar
    35   17   39 1
    36   18   19 ar
    37   18   40 1
    38   19   20 ar
    39   19   22 1
    40   20   21 ar
    41   20   41 1
    42   21   42 1
    43   22   23 1
    44   23   43 1
    45   23   44 1
    46   23   45 1
@<TRIPOS>MOLECULE
ZINC01587804
   30    31     0     0     0
SMALL
USER_CHARGES

@<TRIPOS>ATOM
      1 C1         -1.8721    1.6855    3.6459 C.ar      1 <0>        -0.1661
      2 C2         -2.0754    1.0163    2.4749 C.ar      1 <0>        -0.0318
      3 C3         -2.2860    1.7291    1.2861 C.ar      1 <0>        -0.2141
      4 C4         -2.2970    3.1366    1.3103 C.ar      1 <0>         0.1982
      5 C5         -2.0893    3.8012    2.5060 C.ar      1 <0>        -0.1895
      6 C6         -1.8772    3.0788    3.6721 C.ar      1 <0>         0.1699
      7 O1         -1.6733    3.7324    4.8431 O.3       1 <0>        -0.4932
      8 O2         -2.5052    3.8368    0.1680 O.3       1 <0>        -0.4769
      9 C7         -2.4995    1.0114    0.0238 C.2       1 <0>         0.3746
     10 O3         -2.7777    1.6275   -0.9856 O.2       1 <0>        -0.4004
     11 C8         -2.3748   -0.4734   -0.0197 C.2       1 <0>         0.3751
     12 O4         -1.2763   -0.9916    0.0029 O.2       1 <0>        -0.4008
     13 C9         -3.5793   -1.3092   -0.0899 C.ar      1 <0>        -0.2154
     14 C10        -4.8421   -0.7153   -0.2254 C.ar      1 <0>        -0.0315
     15 C11        -5.9598   -1.4941   -0.2908 C.ar      1 <0>        -0.1652
     16 C12        -5.8573   -2.8823   -0.2233 C.ar      1 <0>         0.1704
     17 C13        -4.6156   -3.4878   -0.0888 C.ar      1 <0>        -0.1914
     18 C14        -3.4719   -2.7114   -0.0273 C.ar      1 <0>         0.1974
     19 O5         -2.2556   -3.2974    0.0980 O.3       1 <0>        -0.4766
     20 O6         -6.9766   -3.6456   -0.2900 O.3       1 <0>        -0.4943
     21 H1         -1.7058    1.1321    4.5583 H         1 <0>         0.1427
     22 H2         -2.0696   -0.0636    2.4627 H         1 <0>         0.1357
     23 H3         -2.0919    4.8809    2.5319 H         1 <0>         0.1474
     24 H4         -0.7445    3.9280    5.0278 H         1 <0>         0.4021
     25 H5         -1.6959    4.0463   -0.3180 H         1 <0>         0.4017
     26 H6         -4.9297    0.3598   -0.2784 H         1 <0>         0.1390
     27 H7         -6.9303   -1.0321   -0.3959 H         1 <0>         0.1429
     28 H8         -4.5418   -4.5640   -0.0369 H         1 <0>         0.1470
     29 H9         -1.9772   -3.4338    1.0140 H         1 <0>         0.4003
     30 H10        -7.2235   -3.9039   -1.1885 H         1 <0>         0.4028
@<TRIPOS>BOND
     1    1    6 ar
     2    1    2 ar
     3    1   21 1
     4    2    3 ar
     5    2   22 1
     6    3    4 ar
     7    3    9 1
     8    4    5 ar
     9    4    8 1
    10    5    6 ar
    11    5   23 1
    12    6    7 1
    13    7   24 1
    14    8   25 1
    15    9   10 2
    16    9   11 1
    17   11   12 2
    18   11   13 1
    19   13   18 ar
    20   13   14 ar
    21   14   15 ar
    22   14   26 1
    23   15   16 ar
    24   15   27 1
    25   16   17 ar
    26   16   20 1
    27   17   18 ar
    28   17   28 1
    29   18   19 1
    30   19   29 1
    31   20   30 1
@<TRIPOS>MOLECULE
ZINC01631270
   38    40     0     0     0
SMALL
USER_CHARGES

@<TRIPOS>ATOM
      1 C1         -0.0127    1.0858    0.0080 C.3       1 <0>        -0.1467
      2 C2         -0.7288    1.5792    1.2668 C.3       1 <0>        -0.1008
      3 C3         -0.7493    3.0861    1.2751 C.2       1 <0>         0.0341
      4 C4         -1.8227    3.7961    0.6783 C.ar      1 <0>        -0.1524
      5 C5         -2.8791    3.0991    0.0726 C.ar      1 <0>        -0.0399
      6 C6         -3.9086    3.7860   -0.4996 C.ar      1 <0>        -0.1646
      7 C7         -3.9201    5.1796   -0.4867 C.ar      1 <0>         0.1685
      8 C8         -2.8865    5.8849    0.1062 C.ar      1 <0>        -0.1658
      9 C9         -1.8298    5.2026    0.6934 C.ar      1 <0>         0.1647
     10 O1         -0.8216    5.8908    1.2722 O.3       1 <0>        -0.2654
     11 C10         0.2137    5.2566    1.8480 C.2       1 <0>         0.5129
     12 O2          1.1092    5.9005    2.3631 O.2       1 <0>        -0.4432
     13 C11         0.2647    3.7925    1.8636 C.2       1 <0>        -0.1679
     14 C12         1.4002    3.0868    2.5022 C.ar      1 <0>        -0.0679
     15 C13         1.1862    2.2970    3.6317 C.ar      1 <0>        -0.0615
     16 C14         2.2444    1.6373    4.2203 C.ar      1 <0>        -0.2072
     17 C15         3.5235    1.7671    3.6962 C.ar      1 <0>         0.1358
     18 C16         3.7411    2.5570    2.5754 C.ar      1 <0>        -0.1485
     19 C17         2.6866    3.2153    1.9785 C.ar      1 <0>        -0.0499
     20 O3          4.5650    1.1198    4.2819 O.3       1 <0>        -0.3158
     21 C18         4.2703    0.3240    5.4316 C.3       1 <0>         0.0257
     22 O4         -4.9518    5.8504   -1.0599 O.3       1 <0>        -0.4907
     23 H1          0.0021   -0.0041    0.0020 H         1 <0>         0.0677
     24 H2          1.0099    1.4631    0.0003 H         1 <0>         0.0618
     25 H3         -0.5399    1.4469   -0.8751 H         1 <0>         0.0589
     26 H4         -1.7514    1.2020    1.2746 H         1 <0>         0.0849
     27 H5         -0.2017    1.2182    2.1499 H         1 <0>         0.0917
     28 H6         -2.8765    2.0192    0.0590 H         1 <0>         0.1464
     29 H7         -4.7203    3.2469   -0.9655 H         1 <0>         0.1431
     30 H8         -2.9026    6.9648    0.1122 H         1 <0>         0.1512
     31 H9          0.1922    2.1992    4.0426 H         1 <0>         0.1267
     32 H10         2.0788    1.0223    5.0925 H         1 <0>         0.1322
     33 H11         4.7375    2.6564    2.1707 H         1 <0>         0.1350
     34 H12         2.8566    3.8299    1.1069 H         1 <0>         0.1290
     35 H13         3.8425    0.9552    6.2105 H         1 <0>         0.0569
     36 H14         3.5564   -0.4541    5.1616 H         1 <0>         0.0567
     37 H15         5.1873   -0.1361    5.7997 H         1 <0>         0.1019
     38 H16        -4.8166    6.0552   -1.9953 H         1 <0>         0.4022
@<TRIPOS>BOND
     1    1    2 1
     2    1   23 1
     3    1   24 1
     4    1   25 1
     5    2    3 1
     6    2   26 1
     7    2   27 1
     8    3   13 2
     9    3    4 1
    10    4    9 ar
    11    4    5 ar
    12    5    6 ar
    13    5   28 1
    14    6    7 ar
    15    6   29 1
    16    7    8 ar
    17    7   22 1
    18    8    9 ar
    19    8   30 1
    20    9   10 1
    21   10   11 1
    22   11   12 2
    23   11   13 1
    24   13   14 1
    25   14   19 ar
    26   14   15 ar
    27   15   16 ar
    28   15   31 1
    29   16   17 ar
    30   16   32 1
    31   17   18 ar
    32   17   20 1
    33   18   19 ar
    34   18   33 1
    35   19   34 1
    36   20   21 1
    37   21   35 1
    38   21   36 1
    39   21   37 1
    40   22   38 1
@<TRIPOS>MOLECULE
ZINC01666991
   48    49     0     0     0
SMALL
USER_CHARGES

@<TRIPOS>ATOM
      1 C1         -0.5680   -0.8421    6.4931 C.3       1 <0>        -0.1517
      2 C2         -0.0883    0.1393    5.4218 C.3       1 <0>        -0.1150
      3 C3         -0.2138    1.5704    5.9482 C.3       1 <0>        -0.0395
      4 H1         -1.2386    1.7491    6.2738 H         1 <0>         0.0806
      5 C4          0.7238    1.7615    7.1124 C.ar      1 <0>        -0.0739
      6 C5          2.0868    1.6151    6.9321 C.ar      1 <0>        -0.0987
      7 C6          2.9488    1.7953    7.9965 C.ar      1 <0>        -0.1417
      8 C7          2.4449    2.1118    9.2497 C.ar      1 <0>         0.0984
      9 C8          1.0765    2.2525    9.4293 C.ar      1 <0>        -0.1420
     10 C9          0.2191    2.0773    8.3604 C.ar      1 <0>        -0.1007
     11 O1          3.2903    2.2832   10.2998 O.3       1 <0>        -0.5009
     12 C10         0.1471    2.5566    4.8355 C.3       1 <0>        -0.0392
     13 H2          1.1680    2.3704    4.5021 H         1 <0>         0.0802
     14 C11         0.0369    3.9872    5.3665 C.3       1 <0>        -0.1156
     15 C12         0.5292    4.9667    4.2992 C.3       1 <0>        -0.1523
     16 C13        -0.8003    2.3761    3.6776 C.ar      1 <0>        -0.0650
     17 C14        -2.1582    2.5608    3.8616 C.ar      1 <0>        -0.1074
     18 C15        -3.0288    2.3951    2.8019 C.ar      1 <0>        -0.1019
     19 C16        -2.5391    2.0492    1.5508 C.ar      1 <0>         0.0942
     20 C17        -1.1767    1.8593    1.3700 C.ar      1 <0>        -0.1019
     21 C18        -0.3103    2.0258    2.4330 C.ar      1 <0>        -0.1097
     22 C19        -0.6419    1.4779    0.0137 C.3       1 <0>        -0.1140
     23 O2         -3.3929    1.8915    0.5054 O.3       1 <0>        -0.4931
     24 C20        -4.5087    2.5961    3.0033 C.3       1 <0>        -0.1094
     25 H3         -1.6101   -0.6343    6.7357 H         1 <0>         0.0527
     26 H4         -0.4785   -1.8617    6.1181 H         1 <0>         0.0529
     27 H5          0.0430   -0.7295    7.3888 H         1 <0>         0.0548
     28 H6         -0.6992    0.0267    4.5262 H         1 <0>         0.0682
     29 H7          0.9539   -0.0685    5.1792 H         1 <0>         0.0629
     30 H8          2.4781    1.3637    5.9574 H         1 <0>         0.1245
     31 H9          4.0137    1.6849    7.8543 H         1 <0>         0.1269
     32 H10         0.6818    2.4991   10.4039 H         1 <0>         0.1271
     33 H11        -0.8463    2.1867    8.4997 H         1 <0>         0.1245
     34 H12         3.4717    1.4728   10.7951 H         1 <0>         0.3902
     35 H13        -1.0032    4.2059    5.6083 H         1 <0>         0.0629
     36 H14         0.6477    4.0900    6.2634 H         1 <0>         0.0685
     37 H15         1.5866    4.7891    4.1032 H         1 <0>         0.0525
     38 H16        -0.0401    4.8201    3.3813 H         1 <0>         0.0556
     39 H17         0.3918    5.9886    4.6527 H         1 <0>         0.0532
     40 H18        -2.5385    2.8345    4.8346 H         1 <0>         0.1232
     41 H19         0.7507    1.8817    2.2919 H         1 <0>         0.1230
     42 H20        -0.6154    0.3918   -0.0741 H         1 <0>         0.0685
     43 H21         0.3656    1.8767   -0.1048 H         1 <0>         0.0667
     44 H22        -1.2890    1.8894   -0.7609 H         1 <0>         0.0728
     45 H23        -3.7320    0.9913    0.4068 H         1 <0>         0.3854
     46 H24        -4.7632    3.6386    2.8123 H         1 <0>         0.0715
     47 H25        -5.0594    1.9556    2.3143 H         1 <0>         0.0666
     48 H26        -4.7740    2.3393    4.0288 H         1 <0>         0.0650
@<TRIPOS>BOND
     1    1    2 1
     2    1   25 1
     3    1   26 1
     4    1   27 1
     5    2    3 1
     6    2   28 1
     7    2   29 1
     8    3    4 1
     9    3    5 1
    10    3   12 1
    11    5   10 ar
    12    5    6 ar
    13    6    7 ar
    14    6   30 1
    15    7    8 ar
    16    7   31 1
    17    8    9 ar
    18    8   11 1
    19    9   10 ar
    20    9   32 1
    21   10   33 1
    22   11   34 1
    23   12   13 1
    24   12   14 1
    25   12   16 1
    26   14   15 1
    27   14   35 1
    28   14   36 1
    29   15   37 1
    30   15   38 1
    31   15   39 1
    32   16   21 ar
    33   16   17 ar
    34   17   18 ar
    35   17   40 1
    36   18   19 ar
    37   18   24 1
    38   19   20 ar
    39   19   23 1
    40   20   21 ar
    41   20   22 1
    42   21   41 1
    43   22   42 1
    44   22   43 1
    45   22   44 1
    46   23   45 1
    47   24   46 1
    48   24   47 1
    49   24   48 1
@<TRIPOS>MOLECULE
ZINC01668370
   44    45     0     0     0
SMALL
USER_CHARGES

@<TRIPOS>ATOM
      1 C1         -2.4692    5.4492    3.8040 C.3       1 <0>        -0.1521
      2 C2         -1.7278    5.0304    2.5328 C.3       1 <0>        -0.1172
      3 C3         -1.5288    3.5134    2.5349 C.3       1 <0>        -0.0402
      4 H1         -2.4920    3.0207    2.6677 H         1 <0>         0.0831
      5 C4         -0.6080    3.1290    3.6642 C.ar      1 <0>        -0.0577
      6 C5          0.6777    3.6356    3.7088 C.ar      1 <0>        -0.1073
      7 C6          1.5259    3.2868    4.7431 C.ar      1 <0>        -0.1260
      8 C7          1.0883    2.4273    5.7381 C.ar      1 <0>         0.0744
      9 C8         -0.2056    1.9171    5.6930 C.ar      1 <0>         0.0840
     10 C9         -1.0526    2.2753    4.6565 C.ar      1 <0>        -0.1276
     11 O1         -0.6397    1.0733    6.6672 O.3       1 <0>        -0.4885
     12 O2          1.9213    2.0835    6.7566 O.3       1 <0>        -0.4889
     13 C10        -0.9126    3.0780    1.2038 C.3       1 <0>        -0.0402
     14 H2          0.0435    3.5824    1.0638 H         1 <0>         0.0830
     15 C11        -0.6937    1.5638    1.2141 C.3       1 <0>        -0.1173
     16 C12         0.0355    1.1452   -0.0641 C.3       1 <0>        -0.1518
     17 C13        -1.8431    3.4434    0.0761 C.ar      1 <0>        -0.0579
     18 C14        -3.1168    2.9074    0.0318 C.ar      1 <0>        -0.1074
     19 C15        -3.9761    3.2439   -0.9975 C.ar      1 <0>        -0.1261
     20 C16        -3.5577    4.1112   -1.9938 C.ar      1 <0>         0.0744
     21 C17        -2.2738    4.6463   -1.9522 C.ar      1 <0>         0.0838
     22 C18        -1.4194    4.3093   -0.9147 C.ar      1 <0>        -0.1273
     23 O3         -1.8586    5.4983   -2.9275 O.3       1 <0>        -0.4885
     24 O4         -4.3997    4.4385   -3.0103 O.3       1 <0>        -0.4889
     25 H3         -3.4639    5.0035    3.8080 H         1 <0>         0.0535
     26 H4         -1.9143    5.1072    4.6776 H         1 <0>         0.0542
     27 H5         -2.5576    6.5352    3.8319 H         1 <0>         0.0546
     28 H6         -0.7566    5.5242    2.4993 H         1 <0>         0.0647
     29 H7         -2.3125    5.3189    1.6594 H         1 <0>         0.0700
     30 H8          1.0200    4.3055    2.9339 H         1 <0>         0.1286
     31 H9          2.5295    3.6844    4.7760 H         1 <0>         0.1327
     32 H10        -2.0587    1.8843    4.6216 H         1 <0>         0.1315
     33 H11        -1.0538    1.5197    7.4184 H         1 <0>         0.3874
     34 H12         1.8733    2.6745    7.5205 H         1 <0>         0.3869
     35 H13        -1.6577    1.0577    1.2649 H         1 <0>         0.0648
     36 H14        -0.0932    1.2894    2.0814 H         1 <0>         0.0701
     37 H15         0.1915    0.0665   -0.0568 H         1 <0>         0.0545
     38 H16         0.9995    1.6514   -0.1148 H         1 <0>         0.0535
     39 H17        -0.5650    1.4196   -0.9314 H         1 <0>         0.0539
     40 H18        -3.4425    2.2276    0.8051 H         1 <0>         0.1287
     41 H19        -4.9719    2.8270   -1.0277 H         1 <0>         0.1327
     42 H20        -0.4226    4.7234   -0.8798 H         1 <0>         0.1315
     43 H21        -1.4377    5.0600   -3.6797 H         1 <0>         0.3875
     44 H22        -4.3425    3.8481   -3.7740 H         1 <0>         0.3869
@<TRIPOS>BOND
     1    1    2 1
     2    1   25 1
     3    1   26 1
     4    1   27 1
     5    2    3 1
     6    2   28 1
     7    2   29 1
     8    3    4 1
     9    3    5 1
    10    3   13 1
    11    5   10 ar
    12    5    6 ar
    13    6    7 ar
    14    6   30 1
    15    7    8 ar
    16    7   31 1
    17    8    9 ar
    18    8   12 1
    19    9   10 ar
    20    9   11 1
    21   10   32 1
    22   11   33 1
    23   12   34 1
    24   13   14 1
    25   13   15 1
    26   13   17 1
    27   15   16 1
    28   15   35 1
    29   15   36 1
    30   16   37 1
    31   16   38 1
    32   16   39 1
    33   17   22 ar
    34   17   18 ar
    35   18   19 ar
    36   18   40 1
    37   19   20 ar
    38   19   41 1
    39   20   21 ar
    40   20   24 1
    41   21   22 ar
    42   21   23 1
    43   22   42 1
    44   23   43 1
    45   24   44 1
@<TRIPOS>MOLECULE
ZINC01686128
   46    49     0     0     0
SMALL
USER_CHARGES

@<TRIPOS>ATOM
      1 C1          2.3031    0.8216   -1.0135 C.3       1 <0>        -0.1380
      2 C2          1.4463    1.5889   -0.0032 C.3       1 <0>        -0.0298
      3 C3          1.4854    3.0990   -0.2397 C.3       1 <0>        -0.0928
      4 C4          0.7661    3.4683   -1.5316 C.3       1 <0>        -0.1156
      5 C5         -0.6958    3.0483   -1.4627 C.3       1 <0>        -0.0392
      6 H1         -1.1366    3.2281   -2.4551 H         1 <0>         0.0778
      7 C6         -1.4729    3.8665   -0.4743 C.ar      1 <0>        -0.0675
      8 C7         -1.0890    5.1776   -0.2340 C.ar      1 <0>        -0.1013
      9 C8         -1.7789    5.9599    0.6688 C.ar      1 <0>        -0.1482
     10 C9         -2.8737    5.4327    1.3378 C.ar      1 <0>         0.1027
     11 C10        -3.2608    4.1272    1.0933 C.ar      1 <0>        -0.1517
     12 C11        -2.5600    3.3371    0.1896 C.ar      1 <0>        -0.0502
     13 C12        -3.0325    1.9256   -0.0056 C.3       1 <0>        -0.0837
     14 C13        -2.2832    1.1632   -1.0805 C.3       1 <0>        -0.1099
     15 C14        -0.8135    1.5622   -1.1753 C.3       1 <0>        -0.0633
     16 H2         -0.3983    1.0381   -2.0654 H         1 <0>         0.0691
     17 C15        -0.0128    1.0922    0.0080 C.3       1 <0>        -0.0669
     18 H3          0.0021   -0.0041    0.0020 H         1 <0>         0.0684
     19 C16        -0.5429    1.5628    1.3705 C.3       1 <0>        -0.1203
     20 C17         0.6537    1.3434    2.3282 C.3       1 <0>        -0.1490
     21 C18         1.9194    1.3370    1.4526 C.3       1 <0>         0.2431
     22 C19         2.5945    0.0312    1.5473 C.1       1 <0>        -0.2067
     23 C20         3.1325   -1.0095    1.6227 C.1       1 <0>        -0.1854
     24 O1          2.8105    2.3733    1.8710 O.3       1 <0>        -0.5415
     25 O2         -3.5631    6.1948    2.2272 O.3       1 <0>        -0.5005
     26 H4          1.8904    0.9528   -2.0138 H         1 <0>         0.0611
     27 H5          3.3237    1.2036   -0.9886 H         1 <0>         0.0588
     28 H6          2.3054   -0.2379   -0.7575 H         1 <0>         0.0587
     29 H7          1.0093    3.6114    0.5972 H         1 <0>         0.0705
     30 H8          2.5256    3.4264   -0.3081 H         1 <0>         0.0674
     31 H9          0.8360    4.5453   -1.6934 H         1 <0>         0.0682
     32 H10         1.2462    2.9683   -2.3769 H         1 <0>         0.0663
     33 H11        -0.2455    5.6028   -0.7566 H         1 <0>         0.1276
     34 H12        -1.4669    6.9768    0.8538 H         1 <0>         0.1266
     35 H13        -4.1172    3.7160    1.6073 H         1 <0>         0.1245
     36 H14        -2.9694    1.3879    0.9431 H         1 <0>         0.0791
     37 H15        -4.0981    1.9587   -0.2816 H         1 <0>         0.0716
     38 H16        -2.3520    0.0854   -0.8722 H         1 <0>         0.0675
     39 H17        -2.7688    1.3336   -2.0516 H         1 <0>         0.0650
     40 H18        -0.8114    2.6170    1.3506 H         1 <0>         0.0856
     41 H19        -1.3884    0.9512    1.6897 H         1 <0>         0.0692
     42 H20         0.5491    0.3880    2.8419 H         1 <0>         0.0700
     43 H21         0.7038    2.1549    3.0537 H         1 <0>         0.0779
     44 H22         3.6137   -1.9403    1.6902 H         1 <0>         0.2178
     45 H23         3.1391    2.2685    2.7744 H         1 <0>         0.3777
     46 H24        -3.2328    6.1366    3.1342 H         1 <0>         0.3893
@<TRIPOS>BOND
     1    1    2 1
     2    1   26 1
     3    1   27 1
     4    1   28 1
     5    2   17 1
     6    2   21 1
     7    2    3 1
     8    3    4 1
     9    3   29 1
    10    3   30 1
    11    4    5 1
    12    4   31 1
    13    4   32 1
    14    5    6 1
    15    5   15 1
    16    5    7 1
    17    7   12 ar
    18    7    8 ar
    19    8    9 ar
    20    8   33 1
    21    9   10 ar
    22    9   34 1
    23   10   11 ar
    24   10   25 1
    25   11   12 ar
    26   11   35 1
    27   12   13 1
    28   13   14 1
    29   13   36 1
    30   13   37 1
    31   14   15 1
    32   14   38 1
    33   14   39 1
    34   15   16 1
    35   15   17 1
    36   17   18 1
    37   17   19 1
    38   19   20 1
    39   19   40 1
    40   19   41 1
    41   20   21 1
    42   20   42 1
    43   20   43 1
    44   21   22 1
    45   21   24 1
    46   22   23 3
    47   23   44 1
    48   24   45 1
    49   25   46 1
@<TRIPOS>MOLECULE
ZINC01747889
   43    44     0     0     0
SMALL
USER_CHARGES

@<TRIPOS>ATOM
      1 C1          1.8888    6.8301    3.2835 C.3       1 <0>        -0.1459
      2 C2          1.3366    7.2046    1.9066 C.3       1 <0>        -0.0853
      3 C3         -0.0686    7.7287    2.0545 C.2       1 <0>        -0.0795
      4 C4         -1.1139    6.8988    1.9055 C.2       1 <0>        -0.0649
      5 C5         -2.5104    7.3867    2.1933 C.3       1 <0>        -0.0879
      6 C6         -2.8827    7.0446    3.6373 C.3       1 <0>        -0.1455
      7 C7         -0.8954    5.5112    1.4607 C.ar      1 <0>        -0.0783
      8 C8         -1.1240    4.4489    2.3400 C.ar      1 <0>        -0.0680
      9 C9         -0.9178    3.1528    1.9196 C.ar      1 <0>        -0.1499
     10 C10        -0.4835    2.9013    0.6245 C.ar      1 <0>         0.1273
     11 C11        -0.2499    3.9538   -0.2512 C.ar      1 <0>        -0.2065
     12 C12        -0.4584    5.2529    0.1584 C.ar      1 <0>        -0.0671
     13 O1         -0.2811    1.6218    0.2147 O.3       1 <0>        -0.3178
     14 C13         0.1657    1.4342   -1.1297 C.3       1 <0>         0.0265
     15 C14        -0.2956    9.1516    2.3624 C.ar      1 <0>        -0.0452
     16 C15        -0.8377   10.0008    1.3935 C.ar      1 <0>        -0.0926
     17 C16        -1.0540   11.3295    1.6883 C.ar      1 <0>        -0.1430
     18 C17        -0.7232   11.8278    2.9419 C.ar      1 <0>         0.1027
     19 C18        -0.1786   10.9892    3.9059 C.ar      1 <0>        -0.1427
     20 C19         0.0357    9.6577    3.6226 C.ar      1 <0>        -0.0926
     21 O2         -0.9334   13.1396    3.2262 O.3       1 <0>        -0.5004
     22 H1          1.8589    7.7024    3.9364 H         1 <0>         0.0551
     23 H2          1.2822    6.0333    3.7137 H         1 <0>         0.0559
     24 H3          2.9186    6.4879    3.1812 H         1 <0>         0.0569
     25 H4          1.3300    6.3230    1.2657 H         1 <0>         0.0770
     26 H5          1.9662    7.9740    1.4597 H         1 <0>         0.0667
     27 H6         -2.5540    8.4668    2.0529 H         1 <0>         0.0761
     28 H7         -3.2115    6.9033    1.5130 H         1 <0>         0.0683
     29 H8         -3.8500    7.4860    3.8774 H         1 <0>         0.0575
     30 H9         -2.9389    5.9621    3.7513 H         1 <0>         0.0555
     31 H10        -2.1245    7.4421    4.3119 H         1 <0>         0.0554
     32 H11        -1.4613    4.6435    3.3473 H         1 <0>         0.1301
     33 H12        -1.0944    2.3314    2.5981 H         1 <0>         0.1313
     34 H13         0.0917    3.7535   -1.2560 H         1 <0>         0.1290
     35 H14        -0.2804    6.0705   -0.5245 H         1 <0>         0.1252
     36 H15         0.2874    0.3691   -1.3268 H         1 <0>         0.1010
     37 H16         1.1206    1.9409   -1.2692 H         1 <0>         0.0560
     38 H17        -0.5701    1.8494   -1.8184 H         1 <0>         0.0561
     39 H18        -1.0911    9.6152    0.4170 H         1 <0>         0.1270
     40 H19        -1.4773   11.9853    0.9420 H         1 <0>         0.1292
     41 H20         0.0771   11.3812    4.8792 H         1 <0>         0.1288
     42 H21         0.4586    9.0063    4.3730 H         1 <0>         0.1277
     43 H22        -0.1827   13.7124    3.0179 H         1 <0>         0.3910
@<TRIPOS>BOND
     1    1    2 1
     2    1   22 1
     3    1   23 1
     4    1   24 1
     5    2    3 1
     6    2   25 1
     7    2   26 1
     8    3    4 2
     9    3   15 1
    10    4    5 1
    11    4    7 1
    12    5    6 1
    13    5   27 1
    14    5   28 1
    15    6   29 1
    16    6   30 1
    17    6   31 1
    18    7   12 ar
    19    7    8 ar
    20    8    9 ar
    21    8   32 1
    22    9   10 ar
    23    9   33 1
    24   10   11 ar
    25   10   13 1
    26   11   12 ar
    27   11   34 1
    28   12   35 1
    29   13   14 1
    30   14   36 1
    31   14   37 1
    32   14   38 1
    33   15   20 ar
    34   15   16 ar
    35   16   17 ar
    36   16   39 1
    37   17   18 ar
    38   17   40 1
    39   18   19 ar
    40   18   21 1
    41   19   20 ar
    42   19   41 1
    43   20   42 1
    44   21   43 1
@<TRIPOS>MOLECULE
ZINC01999257
   50    53     0     0     0
SMALL
USER_CHARGES

@<TRIPOS>ATOM
      1 C1         -2.0723    0.8701    1.4790 C.3       1 <0>        -0.1394
      2 C2         -0.7269    1.5752    1.2725 C.3       1 <0>        -0.0291
      3 C3         -0.0127    1.0868    0.0080 C.3       1 <0>        -0.1129
      4 C4         -0.7416    1.5822   -1.2359 C.3       1 <0>         0.0973
      5 H1         -1.8014    1.2809   -1.1581 H         1 <0>         0.0567
      6 C5         -0.6950    3.1010   -1.2899 C.3       1 <0>        -0.0349
      7 H2         -1.2686    3.4210   -2.1693 H         1 <0>         0.0840
      8 C6          0.6788    3.6842   -1.4051 C.ar      1 <0>        -0.0636
      9 C7          1.6927    2.9885   -2.0422 C.ar      1 <0>        -0.0883
     10 C8          2.9601    3.5236   -2.1702 C.ar      1 <0>        -0.1547
     11 C9          3.2326    4.7787   -1.6504 C.ar      1 <0>         0.1053
     12 C10         2.2276    5.4748   -1.0053 C.ar      1 <0>        -0.1578
     13 C11         0.9518    4.9364   -0.8820 C.ar      1 <0>        -0.0511
     14 C12        -0.0646    5.7747   -0.1629 C.3       1 <0>        -0.0847
     15 C13        -1.4505    5.1646   -0.1043 C.3       1 <0>        -0.1078
     16 C14        -1.4178    3.6423   -0.0603 C.3       1 <0>        -0.0639
     17 H3         -2.4694    3.2925   -0.1426 H         1 <0>         0.0705
     18 C15        -0.8848    3.1071    1.2402 C.3       1 <0>        -0.0702
     19 H4         -1.5863    3.3888    2.0376 H         1 <0>         0.0714
     20 C16         0.5091    3.6233    1.6282 C.3       1 <0>        -0.1219
     21 C17         0.9310    2.6594    2.7659 C.3       1 <0>        -0.1493
     22 C18         0.2296    1.3225    2.4667 C.3       1 <0>         0.2461
     23 C19        -0.5429    0.8879    3.6447 C.1       1 <0>        -0.2087
     24 C20        -1.1581    0.5418    4.5828 C.1       1 <0>        -0.1842
     25 O1          1.1961    0.3248    2.1304 O.3       1 <0>        -0.5405
     26 O2          4.4732    5.3188   -1.7729 O.3       1 <0>        -0.5004
     27 O3         -0.2233    0.9834   -2.4150 O.3       1 <0>        -0.3774
     28 C21        -0.8721   -0.2360   -2.7811 C.3       1 <0>         0.0293
     29 H5         -1.9105   -0.2047    1.5604 H         1 <0>         0.0597
     30 H6         -2.5386    1.2376    2.3931 H         1 <0>         0.0617
     31 H7         -2.7245    1.0762    0.6303 H         1 <0>         0.0597
     32 H8          0.0021   -0.0041    0.0020 H         1 <0>         0.0693
     33 H9          1.0102    1.4608    0.0003 H         1 <0>         0.0826
     34 H10         1.5306    2.0082   -2.4581 H         1 <0>         0.1420
     35 H11         3.7320    2.9636   -2.6768 H         1 <0>         0.1254
     36 H12         2.4330    6.4504   -0.5884 H         1 <0>         0.1232
     37 H13         0.2912    5.9794    0.8506 H         1 <0>         0.0787
     38 H14        -0.1310    6.7467   -0.6749 H         1 <0>         0.0728
     39 H15        -1.9714    5.5404    0.7891 H         1 <0>         0.0700
     40 H16        -2.0306    5.4950   -0.9768 H         1 <0>         0.0676
     41 H17         1.2092    3.5424    0.8006 H         1 <0>         0.0881
     42 H18         0.4579    4.6432    2.0070 H         1 <0>         0.0732
     43 H19         0.6009    3.0518    3.7268 H         1 <0>         0.0724
     44 H20         2.0116    2.5287    2.7603 H         1 <0>         0.0780
     45 H21        -1.7083    0.2323    5.4218 H         1 <0>         0.2179
     46 H22         1.8207    0.1268    2.8416 H         1 <0>         0.3785
     47 H23         5.0689    5.1059   -1.0415 H         1 <0>         0.3886
     48 H24        -0.4189   -0.6299   -3.6908 H         1 <0>         0.0869
     49 H25        -0.7614   -0.9624   -1.9760 H         1 <0>         0.0424
     50 H26        -1.9311   -0.0458   -2.9558 H         1 <0>         0.0413
@<TRIPOS>BOND
     1    1    2 1
     2    1   29 1
     3    1   30 1
     4    1   31 1
     5    2   18 1
     6    2   22 1
     7    2    3 1
     8    3    4 1
     9    3   32 1
    10    3   33 1
    11    4    5 1
    12    4    6 1
    13    4   27 1
    14    6    7 1
    15    6   16 1
    16    6    8 1
    17    8   13 ar
    18    8    9 ar
    19    9   10 ar
    20    9   34 1
    21   10   11 ar
    22   10   35 1
    23   11   12 ar
    24   11   26 1
    25   12   13 ar
    26   12   36 1
    27   13   14 1
    28   14   15 1
    29   14   37 1
    30   14   38 1
    31   15   16 1
    32   15   39 1
    33   15   40 1
    34   16   17 1
    35   16   18 1
    36   18   19 1
    37   18   20 1
    38   20   21 1
    39   20   41 1
    40   20   42 1
    41   21   22 1
    42   21   43 1
    43   21   44 1
    44   22   23 1
    45   22   25 1
    46   23   24 3
    47   24   45 1
    48   25   46 1
    49   26   47 1
    50   27   28 1
    51   28   48 1
    52   28   49 1
    53   28   50 1
@<TRIPOS>MOLECULE
ZINC02035359
   39    40     0     0     0
SMALL
USER_CHARGES

@<TRIPOS>ATOM
      1 C1          0.3362    1.8559    0.8005 C.3       1 <0>        -0.1491
      2 C2         -0.8147    2.0569    1.7885 C.3       1 <0>        -0.1229
      3 C3         -2.0371    1.2682    1.3147 C.3       1 <0>        -0.0260
      4 H1         -2.2845    1.5601    0.2940 H         1 <0>         0.0762
      5 C4         -1.7300   -0.2066    1.3550 C.ar      1 <0>        -0.0473
      6 C5         -1.1665   -0.7592    2.5037 C.ar      1 <0>        -0.0937
      7 C6         -0.8774   -2.0873    2.5730 C.ar      1 <0>        -0.1350
      8 C7         -1.1496   -2.9168    1.4712 C.ar      1 <0>        -0.0414
      9 C8         -0.8652   -4.2918    1.5068 C.ar      1 <0>        -0.1352
     10 C9         -1.1435   -5.0671    0.4174 C.ar      1 <0>         0.0934
     11 C10        -1.7089   -4.5101   -0.7341 C.ar      1 <0>        -0.1551
     12 C11        -1.9955   -3.1825   -0.8000 C.ar      1 <0>        -0.0767
     13 C12        -1.7222   -2.3545    0.3028 C.ar      1 <0>        -0.0598
     14 C13        -2.0122   -0.9799    0.2711 C.ar      1 <0>        -0.0555
     15 O1         -0.8679   -6.3972    0.4531 O.3       1 <0>        -0.5044
     16 C14        -3.2241    1.5673    2.2325 C.3       1 <0>        -0.1011
     17 C15        -2.9216    1.0529    3.6414 C.3       1 <0>        -0.1272
     18 C16        -3.4631    3.0777    2.2815 C.3       1 <0>        -0.1227
     19 C17        -4.4558    0.8808    1.7008 C.2       1 <0>         0.4727
     20 O2         -4.3908    0.2201    0.6912 O.co2     1 <0>        -0.6325
     21 H2          0.5865    0.7965    0.7449 H         1 <0>         0.0537
     22 H3          1.2071    2.4178    1.1381 H         1 <0>         0.0463
     23 H4          0.0349    2.2103   -0.1852 H         1 <0>         0.0509
     24 H5         -0.5133    1.7025    2.7742 H         1 <0>         0.0618
     25 H6         -1.0649    3.1163    1.8441 H         1 <0>         0.0660
     26 H7         -0.9564   -0.1241    3.3516 H         1 <0>         0.1241
     27 H8         -0.4409   -2.5017    3.4697 H         1 <0>         0.1196
     28 H9         -0.4293   -4.7335    2.3906 H         1 <0>         0.1255
     29 H10        -1.9204   -5.1433   -1.5830 H         1 <0>         0.1225
     30 H11        -2.4316   -2.7659   -1.6959 H         1 <0>         0.1289
     31 H12        -2.4530   -0.5385   -0.6105 H         1 <0>         0.1299
     32 H13        -1.5963   -6.9411    0.7830 H         1 <0>         0.3848
     33 H14        -1.9624    1.4490    3.9746 H         1 <0>         0.0431
     34 H15        -3.7064    1.3795    4.3237 H         1 <0>         0.0547
     35 H16        -2.8806   -0.0363    3.6295 H         1 <0>         0.0541
     36 H17        -3.5673    3.4621    1.2669 H         1 <0>         0.0441
     37 H18        -4.3743    3.2834    2.8433 H         1 <0>         0.0602
     38 H19        -2.6181    3.5637    2.7692 H         1 <0>         0.0443
     39 O3         -5.6249    1.0032    2.3487 O.co2     1 <0>        -0.7713
@<TRIPOS>BOND
     1    1    2 1
     2    1   21 1
     3    1   22 1
     4    1   23 1
     5    2    3 1
     6    2   24 1
     7    2   25 1
     8    3    4 1
     9    3    5 1
    10    3   16 1
    11    5   14 ar
    12    5    6 ar
    13    6    7 ar
    14    6   26 1
    15    7    8 ar
    16    7   27 1
    17    8   13 ar
    18    8    9 ar
    19    9   10 ar
    20    9   28 1
    21   10   11 ar
    22   10   15 1
    23   11   12 ar
    24   11   29 1
    25   12   13 ar
    26   12   30 1
    27   13   14 ar
    28   14   31 1
    29   15   32 1
    30   16   17 1
    31   16   18 1
    32   16   19 1
    33   17   33 1
    34   17   34 1
    35   17   35 1
    36   18   36 1
    37   18   37 1
    38   18   38 1
    39   19   20 2
    40   19   39 1
@<TRIPOS>MOLECULE
ZINC02048444
   44    45     0     0     0
SMALL
USER_CHARGES

@<TRIPOS>ATOM
      1 C1          2.4786    0.6968   -2.4687 C.3       1 <0>        -0.1509
      2 C2          3.1707    1.3811   -1.2882 C.3       1 <0>        -0.1156
      3 C3          2.4976    0.9509    0.0167 C.3       1 <0>        -0.0396
      4 H1          2.4927   -0.1372    0.0815 H         1 <0>         0.0791
      5 C4          1.0801    1.4620    0.0430 C.ar      1 <0>        -0.0710
      6 C5          0.0263    0.5724    0.1380 C.ar      1 <0>        -0.1133
      7 C6         -1.2741    1.0409    0.1568 C.ar      1 <0>        -0.1181
      8 C7         -1.5203    2.3996    0.0909 C.ar      1 <0>        -0.0911
      9 C8         -0.4665    3.2892   -0.0036 C.ar      1 <0>        -0.1180
     10 C9          0.8338    2.8204   -0.0273 C.ar      1 <0>        -0.1114
     11 C10        -2.9377    2.9107    0.1172 C.3       1 <0>        -0.1162
     12 C11         3.2703    1.5291    1.2039 C.3       1 <0>        -0.0395
     13 H2          3.2836    2.6167    1.1338 H         1 <0>         0.0802
     14 C12         2.5892    1.1104    2.5084 C.3       1 <0>        -0.1155
     15 C13         3.2869    1.7893    3.6888 C.3       1 <0>        -0.1516
     16 C14         4.6839    1.0071    1.1854 C.ar      1 <0>        -0.0738
     17 C15         4.9193   -0.3517    1.2850 C.ar      1 <0>        -0.0988
     18 C16         6.2140   -0.8331    1.2625 C.ar      1 <0>        -0.1417
     19 C17         7.2789    0.0491    1.1517 C.ar      1 <0>         0.0981
     20 C18         7.0404    1.4125    1.0576 C.ar      1 <0>        -0.1420
     21 C19         5.7436    1.8884    1.0744 C.ar      1 <0>        -0.1009
     22 O1          8.5538   -0.4215    1.1359 O.3       1 <0>        -0.5009
     23 H3          3.0204    0.9215   -3.3875 H         1 <0>         0.0527
     24 H4          2.4672   -0.3813   -2.3081 H         1 <0>         0.0526
     25 H5          1.4552    1.0626   -2.5517 H         1 <0>         0.0546
     26 H6          3.0921    2.4627   -1.3982 H         1 <0>         0.0628
     27 H7          4.2218    1.0935   -1.2668 H         1 <0>         0.0676
     28 H8          0.2188   -0.4889    0.1930 H         1 <0>         0.1189
     29 H9         -2.0976    0.3457    0.2265 H         1 <0>         0.1196
     30 H10        -0.6589    4.3505   -0.0586 H         1 <0>         0.1195
     31 H11         1.6571    3.5154   -0.1011 H         1 <0>         0.1191
     32 H12        -3.3204    2.9735   -0.9015 H         1 <0>         0.0695
     33 H13        -3.5592    2.2286    0.6974 H         1 <0>         0.0654
     34 H14        -2.9589    3.8997    0.5749 H         1 <0>         0.0654
     35 H15         1.5416    1.4106    2.4839 H         1 <0>         0.0690
     36 H16         2.6545    0.0282    2.6213 H         1 <0>         0.0625
     37 H17         4.3344    1.4891    3.7132 H         1 <0>         0.0544
     38 H18         3.2216    2.8715    3.5758 H         1 <0>         0.0527
     39 H19         2.8016    1.4910    4.6181 H         1 <0>         0.0529
     40 H20         4.0901   -1.0376    1.3763 H         1 <0>         0.1245
     41 H21         6.3971   -1.8949    1.3355 H         1 <0>         0.1269
     42 H22         7.8677    2.1013    0.9717 H         1 <0>         0.1270
     43 H23         5.5573    2.9497    1.0012 H         1 <0>         0.1245
     44 H24         8.9584   -0.4907    2.0114 H         1 <0>         0.3901
@<TRIPOS>BOND
     1    1    2 1
     2    1   23 1
     3    1   24 1
     4    1   25 1
     5    2    3 1
     6    2   26 1
     7    2   27 1
     8    3    4 1
     9    3    5 1
    10    3   12 1
    11    5   10 ar
    12    5    6 ar
    13    6    7 ar
    14    6   28 1
    15    7    8 ar
    16    7   29 1
    17    8    9 ar
    18    8   11 1
    19    9   10 ar
    20    9   30 1
    21   10   31 1
    22   11   32 1
    23   11   33 1
    24   11   34 1
    25   12   13 1
    26   12   14 1
    27   12   16 1
    28   14   15 1
    29   14   35 1
    30   14   36 1
    31   15   37 1
    32   15   38 1
    33   15   39 1
    34   16   21 ar
    35   16   17 ar
    36   17   18 ar
    37   17   40 1
    38   18   19 ar
    39   18   41 1
    40   19   20 ar
    41   19   22 1
    42   20   21 ar
    43   20   42 1
    44   21   43 1
    45   22   44 1
@<TRIPOS>MOLECULE
ZINC02106113
   48    51     0     0     0
SMALL
USER_CHARGES

@<TRIPOS>ATOM
      1 C1          1.1741   -0.8328   -2.0375 C.3       1 <0>        -0.1410
      2 C2          0.1568   -0.0748   -2.8927 C.3       1 <0>        -0.0275
      3 C3         -1.2822   -0.5345   -2.6444 C.3       1 <0>        -0.0984
      4 C4         -1.7541   -0.0871   -1.2636 C.3       1 <0>        -0.1131
      5 C5         -1.7545    1.4453   -1.2115 C.3       1 <0>        -0.0433
      6 H1         -2.4031    1.8352   -1.9959 H         1 <0>         0.0793
      7 C6         -0.3375    1.9493   -1.4290 C.3       1 <0>        -0.0692
      8 H2         -0.3720    3.0384   -1.4584 H         1 <0>         0.0708
      9 C7          0.2665    1.4507   -2.7171 C.3       1 <0>        -0.0737
     10 H3          1.3224    1.7208   -2.7368 H         1 <0>         0.0718
     11 C8         -0.4147    2.0419   -3.9588 C.3       1 <0>        -0.1161
     12 C9         -0.3120    0.9613   -5.0539 C.3       1 <0>        -0.1456
     13 C10         0.4226   -0.2388   -4.4178 C.3       1 <0>         0.2385
     14 C11         1.8655   -0.1702   -4.7008 C.1       1 <0>        -0.2055
     15 C12         3.0163   -0.1155   -4.9265 C.1       1 <0>        -0.1825
     16 O1         -0.1225   -1.4706   -4.8950 O.3       1 <0>        -0.5399
     17 C13         0.5039    1.5190   -0.2226 C.3       1 <0>        -0.1215
     18 C14         0.0034    2.2981    0.9867 C.3       1 <0>        -0.0837
     19 C15        -1.5055    2.2176    1.1216 C.2       1 <0>        -0.1121
     20 C16        -2.2875    1.8739    0.1449 C.2       1 <0>        -0.1091
     21 C17        -3.7988    1.8848    0.2295 C.3       1 <0>        -0.0809
     22 C18        -4.2935    1.7608    1.6656 C.3       1 <0>        -0.1611
     23 C19        -3.5112    2.7728    2.4822 C.2       1 <0>         0.3632
     24 O2         -4.0557    3.6683    3.0821 O.2       1 <0>        -0.4509
     25 C20        -2.0165    2.5950    2.4999 C.3       1 <0>        -0.1272
     26 H4          0.9146   -0.7262   -0.9842 H         1 <0>         0.0692
     27 H5          1.1627   -1.8883   -2.3094 H         1 <0>         0.0592
     28 H6          2.1698   -0.4240   -2.2096 H         1 <0>         0.0563
     29 H7         -1.9341   -0.1046   -3.4049 H         1 <0>         0.0667
     30 H8         -1.3283   -1.6219   -2.7031 H         1 <0>         0.0708
     31 H9         -2.7630   -0.4587   -1.0845 H         1 <0>         0.0651
     32 H10        -1.0799   -0.4798   -0.5024 H         1 <0>         0.0689
     33 H11        -1.4607    2.2612   -3.7446 H         1 <0>         0.0725
     34 H12         0.1024    2.9477   -4.2754 H         1 <0>         0.0677
     35 H13        -1.3086    0.6609   -5.3772 H         1 <0>         0.0833
     36 H14         0.2577    1.3415   -5.9019 H         1 <0>         0.0695
     37 H15         4.0456   -0.0665   -5.1284 H         1 <0>         0.2179
     38 H16        -0.0380   -1.5941   -5.8503 H         1 <0>         0.3790
     39 H17         0.3836    0.4495   -0.0498 H         1 <0>         0.0791
     40 H18         1.5541    1.7490   -0.4026 H         1 <0>         0.0677
     41 H19         0.4642    1.8913    1.8868 H         1 <0>         0.0715
     42 H20         0.2951    3.3431    0.8814 H         1 <0>         0.0727
     43 H21        -4.1704    2.8180   -0.1937 H         1 <0>         0.0776
     44 H22        -4.1921    1.0521   -0.3536 H         1 <0>         0.0850
     45 H23        -5.2745    1.9519    1.6979 H         1 <0>         0.0823
     46 H24        -4.1074    0.7538    2.0389 H         1 <0>         0.0996
     47 H25        -1.5939    3.4542    2.7883 H         1 <0>         0.0867
     48 H26        -1.7570    1.8069    3.2067 H         1 <0>         0.1104
@<TRIPOS>BOND
     1    1    2 1
     2    1   26 1
     3    1   27 1
     4    1   28 1
     5    2    9 1
     6    2   13 1
     7    2    3 1
     8    3    4 1
     9    3   29 1
    10    3   30 1
    11    4    5 1
    12    4   31 1
    13    4   32 1
    14    5    6 1
    15    5   20 1
    16    5    7 1
    17    7    8 1
    18    7    9 1
    19    7   17 1
    20    9   10 1
    21    9   11 1
    22   11   12 1
    23   11   33 1
    24   11   34 1
    25   12   13 1
    26   12   35 1
    27   12   36 1
    28   13   14 1
    29   13   16 1
    30   14   15 3
    31   15   37 1
    32   16   38 1
    33   17   18 1
    34   17   39 1
    35   17   40 1
    36   18   19 1
    37   18   41 1
    38   18   42 1
    39   19   25 1
    40   19   20 2
    41   20   21 1
    42   21   22 1
    43   21   43 1
    44   21   44 1
    45   22   23 1
    46   22   45 1
    47   22   46 1
    48   23   24 2
    49   23   25 1
    50   25   47 1
    51   25   48 1
@<TRIPOS>MOLECULE
ZINC02526173
   23    24     0     0     0
SMALL
USER_CHARGES

@<TRIPOS>ATOM
      1 C1         -1.2337    2.1611    0.0196 C.ar      1 <0>        -0.0756
      2 C2         -1.2491    3.5401    0.0331 C.ar      1 <0>        -0.1453
      3 C3         -0.0556    4.2491    0.0255 C.ar      1 <0>         0.1227
      4 C4          1.1567    3.5728    0.0102 C.ar      1 <0>        -0.1444
      5 C5          1.1786    2.1939    0.0026 C.ar      1 <0>        -0.0702
      6 C6         -0.0180    1.4793    0.0102 C.ar      1 <0>        -0.0756
      7 C7          0.0021   -0.0041    0.0020 C.ar      1 <0>        -0.0025
      8 C8         -0.7545   -0.7185    0.9290 C.ar      1 <0>        -0.0740
      9 C9         -0.7332   -2.0992    0.9176 C.ar      1 <0>        -0.0155
     10 C10         0.0391   -2.7750   -0.0133 C.ar      1 <0>        -0.0224
     11 C11         0.7925   -2.0702   -0.9371 C.ar      1 <0>        -0.0162
     12 C12         0.7735   -0.6878   -0.9368 C.ar      1 <0>        -0.0150
     13 Cl1         1.7129    0.1950   -2.0994 Cl        1 <0>        -0.0173
     14 Cl2         1.7578   -2.9237   -2.1005 Cl        1 <0>        -0.0099
     15 Cl3         0.0619   -4.5109   -0.0220 Cl        1 <0>        -0.0111
     16 Cl4        -1.6754   -2.9898    2.0720 Cl        1 <0>        -0.0211
     17 O1         -0.0740    5.6078    0.0326 O.3       1 <0>        -0.4986
     18 H1         -2.1625    1.6101    0.0207 H         1 <0>         0.1328
     19 H2         -2.1907    4.0689    0.0450 H         1 <0>         0.1355
     20 H3          2.0836    4.1271    0.0047 H         1 <0>         0.1351
     21 H4          2.1220    1.6684   -0.0096 H         1 <0>         0.1315
     22 H5         -1.3564   -0.1930    1.6557 H         1 <0>         0.1615
     23 H6         -0.0880    6.0055   -0.8487 H         1 <0>         0.3953
@<TRIPOS>BOND
     1    1    6 ar
     2    1    2 ar
     3    1   18 1
     4    2    3 ar
     5    2   19 1
     6    3    4 ar
     7    3   17 1
     8    4    5 ar
     9    4   20 1
    10    5    6 ar
    11    5   21 1
    12    6    7 1
    13    7   12 ar
    14    7    8 ar
    15    8    9 ar
    16    8   22 1
    17    9   10 ar
    18    9   16 1
    19   10   11 ar
    20   10   15 1
    21   11   12 ar
    22   11   14 1
    23   12   13 1
    24   17   23 1
@<TRIPOS>MOLECULE
ZINC03807917
   49    52     0     0     0
SMALL
USER_CHARGES

@<TRIPOS>ATOM
      1 C1         -1.2655   -0.8872    1.1346 C.3       1 <0>        -0.1422
      2 C2         -1.3782    0.5906    1.5144 C.3       1 <0>        -0.1264
      3 C3         -2.3664    1.2809    0.5946 C.3       1 <0>        -0.0978
      4 C4         -1.9113    1.0059   -0.8472 C.3       1 <0>        -0.1220
      5 C5         -0.4837    1.4872   -1.0910 C.3       1 <0>        -0.0672
      6 H1         -0.4758    2.5732   -0.9983 H         1 <0>         0.0687
      7 C6          0.4977    0.9066   -0.0637 C.3       1 <0>        -0.0705
      8 H2          0.5480   -0.1779   -0.1609 H         1 <0>         0.0867
      9 C7          0.0184    1.2879    1.3261 C.3       1 <0>        -0.0782
     10 H3         -0.0850    2.3698    1.4101 H         1 <0>         0.0834
     11 C8          0.7939    0.7093    2.4911 C.3       1 <0>        -0.1117
     12 C9         -0.2467    0.7291    3.6441 C.3       1 <0>        -0.1754
     13 C10        -1.6240    0.7168    2.9890 C.2       1 <0>         0.3793
     14 O1         -2.6938    0.7936    3.5439 O.2       1 <0>        -0.4381
     15 C11         1.8767    1.5262   -0.3162 C.3       1 <0>        -0.0844
     16 C12         2.2802    1.2712   -1.7391 C.2       1 <0>        -0.1542
     17 C13         1.4200    1.0896   -2.6979 C.2       1 <0>        -0.1048
     18 C14        -0.0668    1.1048   -2.5013 C.3       1 <0>        -0.0133
     19 C15        -0.7048    2.0604   -3.5138 C.3       1 <0>        -0.1043
     20 C16        -0.2634    1.6722   -4.9263 C.3       1 <0>        -0.1157
     21 C17         1.2528    1.8289   -5.0536 C.3       1 <0>         0.1084
     22 H4          1.5356    2.8495   -4.7958 H         1 <0>         0.0547
     23 C18         1.9485    0.8506   -4.1024 C.3       1 <0>        -0.1175
     24 O2          1.6494    1.5497   -6.3978 O.3       1 <0>        -0.5686
     25 C19        -0.6008   -0.2991   -2.7927 C.3       1 <0>        -0.1495
     26 H5         -0.9083   -0.9724    0.1084 H         1 <0>         0.0812
     27 H6         -0.5639   -1.3824    1.8059 H         1 <0>         0.0610
     28 H7         -2.2442   -1.3597    1.2191 H         1 <0>         0.0601
     29 H8         -2.3650    2.3539    0.7862 H         1 <0>         0.0653
     30 H9         -3.3665    0.8771    0.7518 H         1 <0>         0.0708
     31 H10        -2.5821    1.5199   -1.5356 H         1 <0>         0.0658
     32 H11        -1.9620   -0.0664   -1.0362 H         1 <0>         0.0765
     33 H12         1.6464    1.3458    2.7282 H         1 <0>         0.0770
     34 H13         1.1199   -0.3094    2.2813 H         1 <0>         0.0790
     35 H14        -0.1168    1.5527    4.1962 H         1 <0>         0.0883
     36 H15        -0.1246   -0.1527    4.2732 H         1 <0>         0.0974
     37 H16         1.8313    2.6006   -0.1376 H         1 <0>         0.0739
     38 H17         2.6070    1.0753    0.3557 H         1 <0>         0.0727
     39 H18         3.3329    1.2371   -1.9781 H         1 <0>         0.1042
     40 H19        -1.7904    1.9952   -3.4412 H         1 <0>         0.0740
     41 H20        -0.3866    3.0810   -3.3009 H         1 <0>         0.0643
     42 H21        -0.5385    0.6355   -5.1202 H         1 <0>         0.0741
     43 H22        -0.7564    2.3199   -5.6512 H         1 <0>         0.0701
     44 H23         3.0249    1.0209   -4.1235 H         1 <0>         0.0692
     45 H24         1.7323   -0.1736   -4.4066 H         1 <0>         0.0801
     46 H25         2.6007    1.6299   -6.5519 H         1 <0>         0.3782
     47 H26        -0.2472   -0.9887   -2.0261 H         1 <0>         0.0553
     48 H27        -1.6907   -0.2810   -2.7903 H         1 <0>         0.0640
     49 H28        -0.2450   -0.6278   -3.7691 H         1 <0>         0.0581
@<TRIPOS>BOND
     1    1    2 1
     2    1   26 1
     3    1   27 1
     4    1   28 1
     5    2    9 1
     6    2   13 1
     7    2    3 1
     8    3    4 1
     9    3   29 1
    10    3   30 1
    11    4    5 1
    12    4   31 1
    13    4   32 1
    14    5    6 1
    15    5   18 1
    16    5    7 1
    17    7    8 1
    18    7    9 1
    19    7   15 1
    20    9   10 1
    21    9   11 1
    22   11   12 1
    23   11   33 1
    24   11   34 1
    25   12   13 1
    26   12   35 1
    27   12   36 1
    28   13   14 2
    29   15   16 1
    30   15   37 1
    31   15   38 1
    32   16   17 2
    33   16   39 1
    34   17   23 1
    35   17   18 1
    36   18   19 1
    37   18   25 1
    38   19   20 1
    39   19   40 1
    40   19   41 1
    41   20   21 1
    42   20   42 1
    43   20   43 1
    44   21   22 1
    45   21   23 1
    46   21   24 1
    47   23   44 1
    48   23   45 1
    49   24   46 1
    50   25   47 1
    51   25   48 1
    52   25   49 1
@<TRIPOS>MOLECULE
ZINC03812897
   46    49     0     0     0
SMALL
USER_CHARGES

@<TRIPOS>ATOM
      1 C1         -2.7364    1.9044    0.3653 C.3       1 <0>        -0.1388
      2 C2         -2.2496    1.4762   -1.0205 C.3       1 <0>        -0.0458
      3 C3         -2.2334   -0.0354   -1.1088 C.3       1 <0>        -0.1007
      4 C4         -1.3724   -0.5629    0.0549 C.3       1 <0>        -0.1141
      5 C5          0.0269    0.0326   -0.0006 C.3       1 <0>        -0.0424
      6 H1          0.4912   -0.2887   -0.9330 H         1 <0>         0.0763
      7 C6          0.8767   -0.4638    1.1324 C.ar      1 <0>        -0.0771
      8 C7          0.6926   -1.7689    1.5693 C.ar      1 <0>        -0.1032
      9 C8          1.4531   -2.2788    2.5998 C.ar      1 <0>        -0.1471
     10 C9          2.4129   -1.4801    3.2051 C.ar      1 <0>         0.1024
     11 C10         2.5941   -0.1783    2.7720 C.ar      1 <0>        -0.1478
     12 C11         1.8236    0.3361    1.7377 C.ar      1 <0>        -0.0577
     13 C12         2.0601    1.7683    1.3363 C.3       1 <0>        -0.0816
     14 C13         1.4255    2.0763   -0.0194 C.3       1 <0>        -0.1138
     15 C14        -0.0153    1.5661    0.0005 C.3       1 <0>        -0.0759
     16 H2         -0.5190    1.9203    0.8999 H         1 <0>         0.0881
     17 C15        -0.7790    1.9870   -1.2383 C.3       1 <0>        -0.0810
     18 H3         -0.3302    1.5484   -2.1295 H         1 <0>         0.0815
     19 C16        -1.0212    3.4925   -1.4003 C.3       1 <0>        -0.1122
     20 C17        -2.2821    3.5546   -2.3050 C.3       1 <0>        -0.1439
     21 C18        -3.0387    2.2196   -2.0922 C.3       1 <0>         0.2505
     22 C19        -3.0611    1.4411   -3.3413 C.1       1 <0>        -0.2089
     23 C20        -3.0790    0.8203   -4.3376 C.1       1 <0>        -0.1815
     24 O1         -4.3709    2.4718   -1.6407 O.3       1 <0>        -0.5404
     25 O2          3.1713   -1.9740    4.2189 O.3       1 <0>        -0.5003
     26 H4         -2.1288    1.4200    1.1296 H         1 <0>         0.0651
     27 H5         -2.6484    2.9865    0.4630 H         1 <0>         0.0580
     28 H6         -3.7790    1.6119    0.4906 H         1 <0>         0.0640
     29 H7         -1.7997   -0.3455   -2.0595 H         1 <0>         0.0648
     30 H8         -3.2490   -0.4215   -1.0217 H         1 <0>         0.0675
     31 H9         -1.3037   -1.6487   -0.0124 H         1 <0>         0.0665
     32 H10        -1.8413   -0.2912    1.0006 H         1 <0>         0.0715
     33 H11        -0.0539   -2.3904    1.0974 H         1 <0>         0.1277
     34 H12         1.3024   -3.2945    2.9345 H         1 <0>         0.1274
     35 H13         3.3413    0.4432    3.2429 H         1 <0>         0.1260
     36 H14         1.6284    2.4263    2.0903 H         1 <0>         0.0780
     37 H15         3.1333    1.9497    1.2765 H         1 <0>         0.0755
     38 H16         1.9829    1.5729   -0.8094 H         1 <0>         0.0653
     39 H17         1.4321    3.1525   -0.1924 H         1 <0>         0.0723
     40 H18        -0.1679    3.9556   -1.8957 H         1 <0>         0.0694
     41 H19        -1.2125    3.9692   -0.4389 H         1 <0>         0.0767
     42 H20        -1.9883    3.6557   -3.3498 H         1 <0>         0.0722
     43 H21        -2.9134    4.3933   -2.0114 H         1 <0>         0.0810
     44 H22        -3.0950    0.2650   -5.2286 H         1 <0>         0.2181
     45 H23        -4.9208    2.9428   -2.2816 H         1 <0>         0.3782
     46 H24         3.9914   -2.3954    3.9273 H         1 <0>         0.3900
@<TRIPOS>BOND
     1    1    2 1
     2    1   26 1
     3    1   27 1
     4    1   28 1
     5    2   17 1
     6    2   21 1
     7    2    3 1
     8    3    4 1
     9    3   29 1
    10    3   30 1
    11    4    5 1
    12    4   31 1
    13    4   32 1
    14    5    6 1
    15    5   15 1
    16    5    7 1
    17    7   12 ar
    18    7    8 ar
    19    8    9 ar
    20    8   33 1
    21    9   10 ar
    22    9   34 1
    23   10   11 ar
    24   10   25 1
    25   11   12 ar
    26   11   35 1
    27   12   13 1
    28   13   14 1
    29   13   36 1
    30   13   37 1
    31   14   15 1
    32   14   38 1
    33   14   39 1
    34   15   16 1
    35   15   17 1
    36   17   18 1
    37   17   19 1
    38   19   20 1
    39   19   40 1
    40   19   41 1
    41   20   21 1
    42   20   42 1
    43   20   43 1
    44   21   22 1
    45   21   24 1
    46   22   23 3
    47   23   44 1
    48   24   45 1
    49   25   46 1
@<TRIPOS>MOLECULE
ZINC03814361
   51    54     0     0     0
SMALL
USER_CHARGES

@<TRIPOS>ATOM
      1 C1         -0.0127    1.0858    0.0080 C.3       1 <0>        -0.1528
      2 C2         -0.7288    1.5792    1.2668 C.3       1 <0>        -0.0530
      3 C3         -2.1478    1.0117    1.2790 C.3       1 <0>        -0.1038
      4 C4         -2.0533   -0.5111    1.0898 C.3       1 <0>        -0.1677
      5 C5         -1.1243   -1.0808    2.1374 C.2       1 <0>         0.3595
      6 O1         -1.4610   -2.0299    2.8039 O.2       1 <0>        -0.4603
      7 C6          0.2360   -0.4436    2.3387 C.3       1 <0>        -0.1593
      8 C7          0.0241    1.0635    2.4943 C.3       1 <0>        -0.0699
      9 H1         -0.5713    1.2495    3.3882 H         1 <0>         0.0755
     10 C8          1.3502    1.8072    2.6059 C.3       1 <0>        -0.1137
     11 C9          1.0642    3.2504    3.0153 C.3       1 <0>        -0.1154
     12 C10        -0.3458    3.6751    2.6005 C.3       1 <0>        -0.0713
     13 H2         -1.0566    3.3062    3.3399 H         1 <0>         0.0766
     14 C11        -0.7462    3.1031    1.2553 C.3       1 <0>        -0.0595
     15 H3         -0.0414    3.4681    0.5082 H         1 <0>         0.0621
     16 C12        -2.1639    3.5602    0.8823 C.3       1 <0>        -0.1298
     17 C13        -2.1790    5.0833    0.7771 C.3       1 <0>        -0.0957
     18 C14        -1.7883    5.7140    2.0946 C.3       1 <0>        -0.0504
     19 C15        -0.3882    5.2080    2.5940 C.3       1 <0>        -0.0755
     20 H4          0.4565    5.6364    2.0546 H         1 <0>         0.0881
     21 C16        -0.5013    5.6348    4.1176 C.3       1 <0>        -0.1228
     22 C17        -1.9692    5.3698    4.5182 C.3       1 <0>        -0.1544
     23 C18        -2.7929    5.4150    3.2149 C.3       1 <0>         0.1118
     24 H5         -3.5409    6.2059    3.2702 H         1 <0>         0.0568
     25 O2         -3.4256    4.1543    2.9860 O.3       1 <0>        -0.5447
     26 C19        -1.6849    7.2294    1.9109 C.3       1 <0>        -0.1472
     27 H6          0.0021   -0.0041    0.0020 H         1 <0>         0.0571
     28 H7          1.0099    1.4631    0.0003 H         1 <0>         0.0589
     29 H8         -0.5399    1.4469   -0.8751 H         1 <0>         0.0572
     30 H9         -2.6257    1.2353    2.2327 H         1 <0>         0.0724
     31 H10        -2.7262    1.4487    0.4650 H         1 <0>         0.0850
     32 H11        -1.6971   -0.7121    0.1773 H         1 <0>         0.0911
     33 H12        -3.0425   -0.9556    1.1990 H         1 <0>         0.0857
     34 H13         0.8151   -0.6369    1.5467 H         1 <0>         0.0921
     35 H14         0.7033   -0.8459    3.2376 H         1 <0>         0.0859
     36 H15         1.9754    1.3297    3.3603 H         1 <0>         0.0631
     37 H16         1.8596    1.7941    1.6424 H         1 <0>         0.0676
     38 H17         1.1605    3.3404    4.0973 H         1 <0>         0.0595
     39 H18         1.7897    3.9079    2.5364 H         1 <0>         0.0596
     40 H19        -2.4478    3.1251   -0.0759 H         1 <0>         0.0529
     41 H20        -2.8653    3.2404    1.6529 H         1 <0>         0.1183
     42 H21        -1.4751    5.3969    0.0062 H         1 <0>         0.0525
     43 H22        -3.1809    5.4144    0.5037 H         1 <0>         0.0567
     44 H23        -0.2619    6.6933    4.2198 H         1 <0>         0.0626
     45 H24         0.1754    5.0305    4.7218 H         1 <0>         0.0658
     46 H25        -2.3144    6.1421    5.2056 H         1 <0>         0.0654
     47 H26        -2.0592    4.3882    4.9835 H         1 <0>         0.0724
     48 H27        -4.0723    3.9102    3.6623 H         1 <0>         0.3637
     49 H28        -2.6450    7.6211    1.5749 H         1 <0>         0.0540
     50 H29        -1.4155    7.6929    2.8600 H         1 <0>         0.0575
     51 H30        -0.9204    7.4539    1.1671 H         1 <0>         0.0594
@<TRIPOS>BOND
     1    1    2 1
     2    1   27 1
     3    1   28 1
     4    1   29 1
     5    2    8 1
     6    2   14 1
     7    2    3 1
     8    3    4 1
     9    3   30 1
    10    3   31 1
    11    4    5 1
    12    4   32 1
    13    4   33 1
    14    5    6 2
    15    5    7 1
    16    7    8 1
    17    7   34 1
    18    7   35 1
    19    8    9 1
    20    8   10 1
    21   10   11 1
    22   10   36 1
    23   10   37 1
    24   11   12 1
    25   11   38 1
    26   11   39 1
    27   12   13 1
    28   12   19 1
    29   12   14 1
    30   14   15 1
    31   14   16 1
    32   16   17 1
    33   16   40 1
    34   16   41 1
    35   17   18 1
    36   17   42 1
    37   17   43 1
    38   18   23 1
    39   18   19 1
    40   18   26 1
    41   19   20 1
    42   19   21 1
    43   21   22 1
    44   21   44 1
    45   21   45 1
    46   22   23 1
    47   22   46 1
    48   22   47 1
    49   23   24 1
    50   23   25 1
    51   25   48 1
    52   26   49 1
    53   26   50 1
    54   26   51 1
@<TRIPOS>MOLECULE
ZINC03814364
   44    47     0     0     0
SMALL
USER_CHARGES

@<TRIPOS>ATOM
      1 C1         -4.1826    5.0885    2.7463 C.3       1 <0>        -0.1345
      2 C2         -4.7739    5.1581    1.3369 C.3       1 <0>        -0.0552
      3 C3         -4.9838    3.7670    0.7717 C.3       1 <0>        -0.1019
      4 C4         -3.6254    3.0411    0.8012 C.3       1 <0>        -0.1136
      5 C5         -2.5807    3.8226    0.0179 C.3       1 <0>        -0.0424
      6 H1         -2.9221    3.8732   -1.0160 H         1 <0>         0.0758
      7 C6         -1.2439    3.1405    0.0296 C.ar      1 <0>        -0.0767
      8 C7         -1.2136    1.7524    0.0173 C.ar      1 <0>        -0.1030
      9 C8         -0.0126    1.0758    0.0080 C.ar      1 <0>        -0.1470
     10 C9          1.1774    1.7895    0.0004 C.ar      1 <0>         0.1023
     11 C10         1.1473    3.1731    0.0130 C.ar      1 <0>        -0.1477
     12 C11        -0.0629    3.8535    0.0328 C.ar      1 <0>        -0.0581
     13 C12        -0.0175    5.3584    0.0700 C.3       1 <0>        -0.0809
     14 C13        -1.3585    5.9567   -0.2746 C.3       1 <0>        -0.1133
     15 C14        -2.4466    5.2588    0.5410 C.3       1 <0>        -0.0732
     16 H2         -2.1635    5.2422    1.5934 H         1 <0>         0.0844
     17 C15        -3.8021    5.9130    0.3873 C.3       1 <0>        -0.0824
     18 H3         -4.1418    5.8211   -0.6443 H         1 <0>         0.0742
     19 C16        -3.9240    7.3624    0.8445 C.3       1 <0>        -0.1113
     20 C17        -5.3638    7.4974    1.4000 C.3       1 <0>        -0.1572
     21 C18        -5.9967    6.0808    1.3255 C.3       1 <0>         0.1083
     22 H4         -6.5629    5.9595    0.4020 H         1 <0>         0.0608
     23 O1         -6.8284    5.8382    2.4620 O.3       1 <0>        -0.5592
     24 O2          2.3670    1.1328   -0.0187 O.3       1 <0>        -0.5003
     25 H5         -4.0253    6.0986    3.1246 H         1 <0>         0.0545
     26 H6         -4.8715    4.5577    3.4035 H         1 <0>         0.0602
     27 H7         -3.2300    4.5597    2.7150 H         1 <0>         0.0603
     28 H8         -5.7059    3.2250    1.3823 H         1 <0>         0.0696
     29 H9         -5.3451    3.8356   -0.2544 H         1 <0>         0.0633
     30 H10        -3.7379    2.0506    0.3603 H         1 <0>         0.0659
     31 H11        -3.2959    2.9379    1.8351 H         1 <0>         0.0692
     32 H12        -2.1400    1.1973    0.0192 H         1 <0>         0.1278
     33 H13         0.0021   -0.0041    0.0020 H         1 <0>         0.1276
     34 H14         2.0735    3.7285    0.0077 H         1 <0>         0.1261
     35 H15         0.2637    5.6824    1.0720 H         1 <0>         0.0765
     36 H16         0.7299    5.7107   -0.6409 H         1 <0>         0.0765
     37 H17        -1.5436    5.8073   -1.3384 H         1 <0>         0.0638
     38 H18        -1.3561    7.0229   -0.0481 H         1 <0>         0.0718
     39 H19        -3.1958    7.5739    1.6274 H         1 <0>         0.0682
     40 H20        -3.7781    8.0378    0.0015 H         1 <0>         0.0659
     41 H21        -5.3352    7.8404    2.4342 H         1 <0>         0.0740
     42 H22        -5.9362    8.1963    0.7901 H         1 <0>         0.0648
     43 H23        -7.5748    6.4479    2.5405 H         1 <0>         0.3761
     44 H24         2.7013    0.9502   -0.9076 H         1 <0>         0.3901
@<TRIPOS>BOND
     1    1    2 1
     2    1   25 1
     3    1   26 1
     4    1   27 1
     5    2   17 1
     6    2   21 1
     7    2    3 1
     8    3    4 1
     9    3   28 1
    10    3   29 1
    11    4    5 1
    12    4   30 1
    13    4   31 1
    14    5    6 1
    15    5   15 1
    16    5    7 1
    17    7   12 ar
    18    7    8 ar
    19    8    9 ar
    20    8   32 1
    21    9   10 ar
    22    9   33 1
    23   10   11 ar
    24   10   24 1
    25   11   12 ar
    26   11   34 1
    27   12   13 1
    28   13   14 1
    29   13   35 1
    30   13   36 1
    31   14   15 1
    32   14   37 1
    33   14   38 1
    34   15   16 1
    35   15   17 1
    36   17   18 1
    37   17   19 1
    38   19   20 1
    39   19   39 1
    40   19   40 1
    41   20   21 1
    42   20   41 1
    43   20   42 1
    44   21   22 1
    45   21   23 1
    46   23   43 1
    47   24   44 1
@<TRIPOS>MOLECULE
ZINC03814379
   46    49     0     0     0
SMALL
USER_CHARGES

@<TRIPOS>ATOM
      1 C1         -0.9002    3.1063    1.1676 C.3       1 <0>        -0.1352
      2 C2         -0.7446    1.5859    1.2388 C.3       1 <0>        -0.0595
      3 C3          0.0203    1.0901    0.0265 C.3       1 <0>        -0.1010
      4 C4         -0.7128    1.6125   -1.2191 C.3       1 <0>        -0.1176
      5 C5         -2.1691    1.1581   -1.2496 C.3       1 <0>        -0.0704
      6 H1         -2.2002    0.0749   -1.3679 H         1 <0>         0.0726
      7 C6         -2.9128    1.5415    0.0378 C.3       1 <0>        -0.0754
      8 H2         -2.9478    2.6263    0.1390 H         1 <0>         0.0858
      9 C7         -2.1518    0.9359    1.2034 C.3       1 <0>        -0.0829
     10 H3         -2.0650   -0.1436    1.0792 H         1 <0>         0.0753
     11 C8         -2.6928    1.2710    2.5978 C.3       1 <0>        -0.1135
     12 C9         -1.4565    1.0531    3.5121 C.3       1 <0>        -0.1569
     13 C10        -0.2098    1.2196    2.6079 C.3       1 <0>         0.1119
     14 H4          0.3385    0.2797    2.5439 H         1 <0>         0.0549
     15 O1          0.6369    2.2520    3.1172 O.3       1 <0>        -0.5598
     16 C11        -4.3294    0.9619   -0.0117 C.3       1 <0>        -0.1130
     17 C12        -5.1061    1.6288   -1.1492 C.3       1 <0>        -0.0987
     18 C13        -4.3273    1.4526   -2.4401 C.2       1 <0>        -0.0216
     19 C14        -4.9889    1.0042   -3.5066 C.2       1 <0>        -0.2454
     20 C15        -4.3004    0.8657   -4.7808 C.2       1 <0>         0.3863
     21 O2         -4.7256    0.1358   -5.6517 O.2       1 <0>        -0.4586
     22 C16        -3.0214    1.6604   -4.9587 C.3       1 <0>        -0.1594
     23 C17        -2.1557    1.4157   -3.7235 C.3       1 <0>        -0.1109
     24 C18        -2.8741    1.8107   -2.4453 C.3       1 <0>        -0.0610
     25 H5         -2.7830    2.8918   -2.3401 H         1 <0>         0.0913
     26 H6         -1.3917    3.3779    0.2334 H         1 <0>         0.0585
     27 H7         -1.5030    3.4496    2.0084 H         1 <0>         0.0543
     28 H8          0.0832    3.5746    1.2103 H         1 <0>         0.0597
     29 H9          0.0366    0.0002    0.0180 H         1 <0>         0.0631
     30 H10         1.0393    1.4763    0.0469 H         1 <0>         0.0679
     31 H11        -0.6804    2.7020   -1.2197 H         1 <0>         0.0699
     32 H12        -0.2072    1.2416   -2.1107 H         1 <0>         0.0663
     33 H13        -3.0279    2.3072    2.6427 H         1 <0>         0.0709
     34 H14        -3.4998    0.5914    2.8719 H         1 <0>         0.0667
     35 H15        -1.4437    1.7980    4.3078 H         1 <0>         0.0727
     36 H16        -1.4784    0.0501    3.9382 H         1 <0>         0.0674
     37 H17         0.9806    2.0771    4.0040 H         1 <0>         0.3760
     38 H18        -4.2774   -0.1126   -0.1873 H         1 <0>         0.0660
     39 H19        -4.8345    1.1530    0.9351 H         1 <0>         0.0719
     40 H20        -6.0857    1.1608   -1.2464 H         1 <0>         0.0777
     41 H21        -5.2256    2.6911   -0.9365 H         1 <0>         0.0845
     42 H22        -6.0401    0.7685   -3.4302 H         1 <0>         0.1345
     43 H23        -3.2422    2.6315   -5.0491 H         1 <0>         0.0897
     44 H24        -2.4963    1.3222   -5.8520 H         1 <0>         0.0919
     45 H25        -1.2392    1.9992   -3.8108 H         1 <0>         0.0828
     46 H26        -1.8983    0.3577   -3.6740 H         1 <0>         0.0700
@<TRIPOS>BOND
     1    1    2 1
     2    1   26 1
     3    1   27 1
     4    1   28 1
     5    2    9 1
     6    2   13 1
     7    2    3 1
     8    3    4 1
     9    3   29 1
    10    3   30 1
    11    4    5 1
    12    4   31 1
    13    4   32 1
    14    5    6 1
    15    5   24 1
    16    5    7 1
    17    7    8 1
    18    7    9 1
    19    7   16 1
    20    9   10 1
    21    9   11 1
    22   11   12 1
    23   11   33 1
    24   11   34 1
    25   12   13 1
    26   12   35 1
    27   12   36 1
    28   13   14 1
    29   13   15 1
    30   15   37 1
    31   16   17 1
    32   16   38 1
    33   16   39 1
    34   17   18 1
    35   17   40 1
    36   17   41 1
    37   18   24 1
    38   18   19 2
    39   19   20 1
    40   19   42 1
    41   20   21 2
    42   20   22 1
    43   22   23 1
    44   22   43 1
    45   22   44 1
    46   23   24 1
    47   23   45 1
    48   23   46 1
    49   24   25 1
@<TRIPOS>MOLECULE
ZINC03814383
   53    56     0     0     0
SMALL
USER_CHARGES

@<TRIPOS>ATOM
      1 C1         -2.2176    2.2641    1.2286 C.3       1 <0>        -0.1982
      2 C2         -0.7281    2.0356    1.2402 C.2       1 <0>         0.3622
      3 O1         -0.0910    2.2576    2.2418 O.2       1 <0>        -0.4541
      4 C3         -0.0337    1.5299    0.0020 C.3       1 <0>        -0.1244
      5 H1         -0.4737    1.9167   -0.8084 H         1 <0>         0.0891
      6 C4          1.4696    1.9020    0.0399 C.3       1 <0>        -0.1196
      7 C5          2.2545    0.5665   -0.0714 C.3       1 <0>        -0.1143
      8 C6          1.2520   -0.3645   -0.7629 C.3       1 <0>        -0.0791
      9 H2          1.1801   -0.1401   -1.8271 H         1 <0>         0.0792
     10 C7         -0.0706    0.0058   -0.0395 C.3       1 <0>        -0.0499
     11 C8         -1.2029   -0.6226   -0.8290 C.3       1 <0>        -0.1054
     12 C9         -1.0332   -2.1469   -0.7280 C.3       1 <0>        -0.1225
     13 C10         0.3299   -2.5982   -1.2435 C.3       1 <0>        -0.0661
     14 H3          0.3863   -2.4038   -2.3145 H         1 <0>         0.0716
     15 C11         1.4785   -1.8504   -0.5509 C.3       1 <0>        -0.0788
     16 H4          1.4886   -2.0867    0.5131 H         1 <0>         0.0880
     17 C12         2.8054   -2.2675   -1.1918 C.3       1 <0>        -0.1134
     18 C13         3.0538   -3.7520   -0.9151 C.3       1 <0>        -0.0975
     19 C14         1.8581   -4.5461   -1.4089 C.2       1 <0>        -0.0168
     20 C15         2.0927   -5.6150   -2.1691 C.2       1 <0>        -0.2433
     21 C16         0.9750   -6.4391   -2.6420 C.2       1 <0>         0.3868
     22 O2          1.0826   -7.1687   -3.6054 O.2       1 <0>        -0.4573
     23 C17        -0.3218   -6.3309   -1.8640 C.3       1 <0>        -0.1590
     24 C18        -0.6375   -4.8442   -1.7050 C.3       1 <0>        -0.1053
     25 C19         0.4861   -4.1046   -1.0011 C.3       1 <0>        -0.0285
     26 C20         0.3328   -4.3592    0.4998 C.3       1 <0>        -0.1509
     27 C21        -0.0603   -0.5520    1.3851 C.3       1 <0>        -0.1572
     28 H5         -2.5834    2.0320    0.3273 H         1 <0>         0.0725
     29 H6         -2.6877    1.6350    1.9845 H         1 <0>         0.0909
     30 H7         -2.4263    3.3115    1.4466 H         1 <0>         0.0917
     31 H8          1.7155    2.5516   -0.8001 H         1 <0>         0.0678
     32 H9          1.7084    2.3990    0.9802 H         1 <0>         0.0799
     33 H10         2.5137    0.1879    0.9173 H         1 <0>         0.0704
     34 H11         3.1489    0.6914   -0.6817 H         1 <0>         0.0679
     35 H12        -2.1616   -0.3266   -0.4033 H         1 <0>         0.0666
     36 H13        -1.1463   -0.3109   -1.8719 H         1 <0>         0.0679
     37 H14        -1.1365   -2.4478    0.3146 H         1 <0>         0.0750
     38 H15        -1.8135   -2.6311   -1.3153 H         1 <0>         0.0667
     39 H16         3.6167   -1.6770   -0.7662 H         1 <0>         0.0722
     40 H17         2.7582   -2.1007   -2.2679 H         1 <0>         0.0658
     41 H18         3.1792   -3.9082    0.1563 H         1 <0>         0.0843
     42 H19         3.9517   -4.0788   -1.4397 H         1 <0>         0.0775
     43 H20         3.1061   -5.8745   -2.4375 H         1 <0>         0.1336
     44 H21        -1.0515   -6.7950   -2.3662 H         1 <0>         0.0828
     45 H22        -0.2052   -6.7928   -0.8836 H         1 <0>         0.0989
     46 H23        -1.5535   -4.7353   -1.1242 H         1 <0>         0.0838
     47 H24        -0.7890   -4.4053   -2.6912 H         1 <0>         0.0691
     48 H25        -0.6520   -4.0251    0.8263 H         1 <0>         0.0694
     49 H26         0.4398   -5.4253    0.7003 H         1 <0>         0.0588
     50 H27         1.1015   -3.8086    1.0421 H         1 <0>         0.0637
     51 H28        -0.9848   -0.2737    1.8910 H         1 <0>         0.0509
     52 H29         0.0215   -1.6383    1.3494 H         1 <0>         0.0720
     53 H30         0.7899   -0.1414    1.9299 H         1 <0>         0.0646
@<TRIPOS>BOND
     1    1    2 1
     2    1   28 1
     3    1   29 1
     4    1   30 1
     5    2    3 2
     6    2    4 1
     7    4    5 1
     8    4   10 1
     9    4    6 1
    10    6    7 1
    11    6   31 1
    12    6   32 1
    13    7    8 1
    14    7   33 1
    15    7   34 1
    16    8    9 1
    17    8   15 1
    18    8   10 1
    19   10   11 1
    20   10   27 1
    21   11   12 1
    22   11   35 1
    23   11   36 1
    24   12   13 1
    25   12   37 1
    26   12   38 1
    27   13   14 1
    28   13   25 1
    29   13   15 1
    30   15   16 1
    31   15   17 1
    32   17   18 1
    33   17   39 1
    34   17   40 1
    35   18   19 1
    36   18   41 1
    37   18   42 1
    38   19   25 1
    39   19   20 2
    40   20   21 1
    41   20   43 1
    42   21   22 2
    43   21   23 1
    44   23   24 1
    45   23   44 1
    46   23   45 1
    47   24   25 1
    48   24   46 1
    49   24   47 1
    50   25   26 1
    51   26   48 1
    52   26   49 1
    53   26   50 1
    54   27   51 1
    55   27   52 1
    56   27   53 1
@<TRIPOS>MOLECULE
ZINC03814410
   45    48     0     0     0
SMALL
USER_CHARGES

@<TRIPOS>ATOM
      1 C1         -1.3989    3.9086   -0.4515 C.3       1 <0>        -0.1368
      2 C2         -1.9083    2.4796   -0.6503 C.3       1 <0>        -0.0582
      3 C3         -3.2090    2.5195   -1.4247 C.3       1 <0>        -0.1023
      4 C4         -4.1912    3.4099   -0.6776 C.3       1 <0>        -0.1142
      5 C5         -4.3889    2.9210    0.7499 C.3       1 <0>        -0.0418
      6 H1         -4.8316    1.9259    0.7071 H         1 <0>         0.0780
      7 C6         -5.3364    3.8005    1.5139 C.ar      1 <0>        -0.0629
      8 C7         -6.3872    4.3896    0.8242 C.ar      1 <0>        -0.1115
      9 C8         -7.2931    5.1995    1.4776 C.ar      1 <0>        -0.1327
     10 C9         -7.1545    5.4273    2.8375 C.ar      1 <0>         0.0775
     11 C10        -6.1019    4.8425    3.5286 C.ar      1 <0>         0.0767
     12 C11        -5.1856    4.0302    2.8656 C.ar      1 <0>        -0.0835
     13 C12        -4.0539    3.4511    3.6729 C.3       1 <0>        -0.0730
     14 C13        -3.3512    2.3247    2.9163 C.3       1 <0>        -0.1133
     15 C14        -3.0539    2.8136    1.4985 C.3       1 <0>        -0.0745
     16 H2         -2.5666    3.7883    1.5243 H         1 <0>         0.0863
     17 C15        -2.1921    1.8307    0.7333 C.3       1 <0>        -0.0824
     18 H3         -2.7126    0.8806    0.6125 H         1 <0>         0.0771
     19 C16        -0.7701    1.6018    1.2619 C.3       1 <0>        -0.1124
     20 C17        -0.0127    1.0858    0.0080 C.3       1 <0>        -0.1569
     21 C18        -0.7919    1.6138   -1.2225 C.3       1 <0>         0.1115
     22 H4         -1.2113    0.7826   -1.7893 H         1 <0>         0.0573
     23 O1          0.0672    2.3962   -2.0544 O.3       1 <0>        -0.5599
     24 O2         -5.9650    5.0642    4.8633 O.3       1 <0>        -0.4851
     25 O3         -8.0452    6.2196    3.4919 O.3       1 <0>        -0.4882
     26 H5         -1.1033    4.3261   -1.4140 H         1 <0>         0.0623
     27 H6         -2.1908    4.5196   -0.0183 H         1 <0>         0.0594
     28 H7         -0.5399    3.8981    0.2193 H         1 <0>         0.0542
     29 H8         -3.0322    2.9163   -2.4244 H         1 <0>         0.0694
     30 H9         -3.6294    1.5161   -1.4933 H         1 <0>         0.0617
     31 H10        -5.1509    3.4063   -1.1945 H         1 <0>         0.0679
     32 H11        -3.7980    4.4263   -0.6579 H         1 <0>         0.0707
     33 H12        -6.4971    4.2117   -0.2354 H         1 <0>         0.1312
     34 H13        -8.1065    5.6541    0.9317 H         1 <0>         0.1327
     35 H14        -3.3324    4.2383    3.8917 H         1 <0>         0.0795
     36 H15        -4.4485    3.0583    4.6100 H         1 <0>         0.0739
     37 H16        -3.9994    1.4493    2.8749 H         1 <0>         0.0652
     38 H17        -2.4190    2.0691    3.4200 H         1 <0>         0.0725
     39 H18        -0.7676    0.8494    2.0506 H         1 <0>         0.0670
     40 H19        -0.3355    2.5360    1.6175 H         1 <0>         0.0714
     41 H20         0.0021   -0.0041    0.0020 H         1 <0>         0.0674
     42 H21         1.0060    1.4735    0.0004 H         1 <0>         0.0728
     43 H22         0.8193    1.9063   -2.4140 H         1 <0>         0.3753
     44 H23        -6.4287    4.4223    5.4183 H         1 <0>         0.3843
     45 H24        -8.8061    5.7428    3.8507 H         1 <0>         0.3863
@<TRIPOS>BOND
     1    1    2 1
     2    1   26 1
     3    1   27 1
     4    1   28 1
     5    2   17 1
     6    2   21 1
     7    2    3 1
     8    3    4 1
     9    3   29 1
    10    3   30 1
    11    4    5 1
    12    4   31 1
    13    4   32 1
    14    5    6 1
    15    5   15 1
    16    5    7 1
    17    7   12 ar
    18    7    8 ar
    19    8    9 ar
    20    8   33 1
    21    9   10 ar
    22    9   34 1
    23   10   11 ar
    24   10   25 1
    25   11   12 ar
    26   11   24 1
    27   12   13 1
    28   13   14 1
    29   13   35 1
    30   13   36 1
    31   14   15 1
    32   14   37 1
    33   14   38 1
    34   15   16 1
    35   15   17 1
    36   17   18 1
    37   17   19 1
    38   19   20 1
    39   19   39 1
    40   19   40 1
    41   20   21 1
    42   20   41 1
    43   20   42 1
    44   21   22 1
    45   21   23 1
    46   23   43 1
    47   24   44 1
    48   25   45 1
@<TRIPOS>MOLECULE
ZINC03814412
   53    56     0     0     0
SMALL
USER_CHARGES

@<TRIPOS>ATOM
      1 C1         -3.1547    3.8587   -4.2664 C.3       1 <0>        -0.1527
      2 C2         -3.8341    2.5062   -4.0425 C.3       1 <0>        -0.0473
      3 C3         -3.8546    1.7224   -5.3563 C.3       1 <0>        -0.1087
      4 C4         -4.6282    2.5165   -6.4110 C.3       1 <0>        -0.1536
      5 C5         -6.0629    2.7411   -5.9291 C.3       1 <0>         0.1051
      6 H1         -6.5480    1.7779   -5.7708 H         1 <0>         0.0517
      7 C6         -6.0429    3.5241   -4.6149 C.3       1 <0>        -0.1096
      8 C7         -5.2687    2.7308   -3.5599 C.3       1 <0>        -0.0707
      9 H2         -5.7537    1.7677   -3.4012 H         1 <0>         0.0696
     10 C8         -5.2500    3.5149   -2.2463 C.3       1 <0>        -0.1155
     11 C9         -4.4674    2.7296   -1.1918 C.3       1 <0>        -0.1122
     12 C10        -3.0327    2.5174   -1.6772 C.3       1 <0>        -0.0741
     13 H3         -2.5401    3.4756   -1.8423 H         1 <0>         0.0851
     14 C11        -3.0592    1.7151   -2.9877 C.3       1 <0>        -0.0672
     15 H4         -3.5800    0.7733   -2.8147 H         1 <0>         0.0646
     16 C12        -1.6512    1.4162   -3.4909 C.3       1 <0>        -0.1191
     17 C13        -0.8113    0.7256   -2.4262 C.3       1 <0>        -0.1028
     18 C14        -0.7895    1.6104   -1.1950 C.3       1 <0>        -0.0562
     19 C15        -2.2464    1.7049   -0.6660 C.3       1 <0>        -0.0836
     20 H5         -2.6791    0.7102   -0.5597 H         1 <0>         0.0735
     21 C16        -2.0350    2.3454    0.7103 C.3       1 <0>        -0.1127
     22 C17        -0.7782    1.6054    1.2504 C.3       1 <0>        -0.1568
     23 C18        -0.0127    1.0858    0.0080 C.3       1 <0>         0.1102
     24 H6          0.0021   -0.0041    0.0020 H         1 <0>         0.0559
     25 O1          1.3211    1.5984   -0.0020 O.3       1 <0>        -0.5601
     26 C19        -0.2836    3.0050   -1.5693 C.3       1 <0>        -0.1345
     27 O2         -6.7856    3.4823   -6.9142 O.3       1 <0>        -0.5699
     28 H7         -2.1325    3.6994   -4.6097 H         1 <0>         0.0560
     29 H8         -3.7068    4.4227   -5.0182 H         1 <0>         0.0597
     30 H9         -3.1407    4.4176   -3.3306 H         1 <0>         0.0611
     31 H10        -2.8326    1.5617   -5.6997 H         1 <0>         0.0695
     32 H11        -4.3403    0.7596   -5.1976 H         1 <0>         0.0616
     33 H12        -4.1429    3.4797   -6.5689 H         1 <0>         0.0741
     34 H13        -4.6425    1.9590   -7.3475 H         1 <0>         0.0616
     35 H14        -5.5580    4.4874   -4.7733 H         1 <0>         0.0732
     36 H15        -7.0650    3.6839   -4.2716 H         1 <0>         0.0671
     37 H16        -4.7729    4.4816   -2.4073 H         1 <0>         0.0664
     38 H17        -6.2722    3.6677   -1.9002 H         1 <0>         0.0617
     39 H18        -4.9436    1.7624   -1.0311 H         1 <0>         0.0603
     40 H19        -4.4556    3.2891   -0.2564 H         1 <0>         0.0629
     41 H20        -1.7155    0.7757   -4.3705 H         1 <0>         0.0633
     42 H21        -1.1650    2.3521   -3.7665 H         1 <0>         0.0700
     43 H22         0.2042    0.5745   -2.7923 H         1 <0>         0.0648
     44 H23        -1.2661   -0.2350   -2.1845 H         1 <0>         0.0594
     45 H24        -1.8406    3.4135    0.6129 H         1 <0>         0.0696
     46 H25        -2.8965    2.1688    1.3543 H         1 <0>         0.0654
     47 H26        -1.0782    0.7691    1.8818 H         1 <0>         0.0663
     48 H27        -0.1506    2.2948    1.8152 H         1 <0>         0.0721
     49 H28         1.8573    1.3145    0.7510 H         1 <0>         0.3745
     50 H29         0.7697    2.9478   -1.8441 H         1 <0>         0.0604
     51 H30        -0.8590    3.3859   -2.4130 H         1 <0>         0.0604
     52 H31        -0.4009    3.6748   -0.7174 H         1 <0>         0.0529
     53 H32        -6.8389    3.0447   -7.7749 H         1 <0>         0.3773
@<TRIPOS>BOND
     1    1    2 1
     2    1   28 1
     3    1   29 1
     4    1   30 1
     5    2    8 1
     6    2   14 1
     7    2    3 1
     8    3    4 1
     9    3   31 1
    10    3   32 1
    11    4    5 1
    12    4   33 1
    13    4   34 1
    14    5    6 1
    15    5    7 1
    16    5   27 1
    17    7    8 1
    18    7   35 1
    19    7   36 1
    20    8    9 1
    21    8   10 1
    22   10   11 1
    23   10   37 1
    24   10   38 1
    25   11   12 1
    26   11   39 1
    27   11   40 1
    28   12   13 1
    29   12   19 1
    30   12   14 1
    31   14   15 1
    32   14   16 1
    33   16   17 1
    34   16   41 1
    35   16   42 1
    36   17   18 1
    37   17   43 1
    38   17   44 1
    39   18   23 1
    40   18   19 1
    41   18   26 1
    42   19   20 1
    43   19   21 1
    44   21   22 1
    45   21   45 1
    46   21   46 1
    47   22   23 1
    48   22   47 1
    49   22   48 1
    50   23   24 1
    51   23   25 1
    52   25   49 1
    53   26   50 1
    54   26   51 1
    55   26   52 1
    56   27   53 1
@<TRIPOS>MOLECULE
ZINC03814415
   48    51     0     0     0
SMALL
USER_CHARGES

@<TRIPOS>ATOM
      1 C1         -1.2897    4.0120   -0.1419 C.3       1 <0>        -0.1343
      2 C2         -0.7191    3.5729    1.2081 C.3       1 <0>        -0.0446
      3 C3          0.7074    4.0685    1.3488 C.3       1 <0>        -0.1011
      4 C4          1.4841    3.5663    0.1214 C.3       1 <0>        -0.1183
      5 C5          1.4264    2.0466   -0.0006 C.3       1 <0>        -0.0717
      6 H1          1.9658    1.6115    0.8407 H         1 <0>         0.0716
      7 C6         -0.0187    1.5275    0.0104 C.3       1 <0>        -0.0754
      8 H2         -0.5546    1.8977   -0.8636 H         1 <0>         0.0876
      9 C7         -0.6745    2.0232    1.2865 C.3       1 <0>        -0.0819
     10 H3         -0.1016    1.7021    2.1564 H         1 <0>         0.0784
     11 C8         -2.1592    1.6784    1.4488 C.3       1 <0>        -0.1128
     12 C9         -2.6588    2.7552    2.4503 C.3       1 <0>        -0.1452
     13 C10        -1.6847    3.9532    2.3258 C.3       1 <0>         0.2503
     14 C11        -0.9527    4.1487    3.5878 C.1       1 <0>        -0.2102
     15 C12        -0.3688    4.3047    4.5943 C.1       1 <0>        -0.1803
     16 O1         -2.4011    5.1400    1.9788 O.3       1 <0>        -0.5405
     17 C13         0.0021   -0.0041    0.0020 C.3       1 <0>        -0.1137
     18 C14         0.6015   -0.4904   -1.3192 C.3       1 <0>        -0.0972
     19 C15         1.9698    0.1419   -1.4981 C.2       1 <0>        -0.0238
     20 C16         2.9832   -0.6571   -1.8319 C.2       1 <0>        -0.2444
     21 C17         4.3240   -0.0973   -2.0338 C.2       1 <0>         0.3867
     22 O2          5.3209   -0.7849   -1.9601 O.2       1 <0>        -0.4575
     23 C18         4.3982    1.3858   -2.3400 C.3       1 <0>        -0.1597
     24 C19         3.5479    2.1105   -1.2976 C.3       1 <0>        -0.1095
     25 C20         2.1106    1.6205   -1.3054 C.3       1 <0>        -0.0601
     26 H4          1.5889    2.1186   -2.1226 H         1 <0>         0.0909
     27 H5         -0.6900    3.5854   -0.9459 H         1 <0>         0.0640
     28 H6         -2.3186    3.6638   -0.2321 H         1 <0>         0.0579
     29 H7         -1.2669    5.0997   -0.2095 H         1 <0>         0.0618
     30 H8          1.1520    3.6671    2.2595 H         1 <0>         0.0646
     31 H9          0.7210    5.1581    1.3768 H         1 <0>         0.0670
     32 H10         2.5254    3.8766    0.2084 H         1 <0>         0.0665
     33 H11         1.0546    4.0115   -0.7761 H         1 <0>         0.0698
     34 H12        -2.2796    0.6785    1.8657 H         1 <0>         0.0703
     35 H13        -2.6840    1.7637    0.4973 H         1 <0>         0.0753
     36 H14        -2.6378    2.3599    3.4659 H         1 <0>         0.0720
     37 H15        -3.6706    3.0672    2.1915 H         1 <0>         0.0809
     38 H16         0.1534    4.4441    5.4945 H         1 <0>         0.2181
     39 H17        -3.0309    5.4304    2.6527 H         1 <0>         0.3785
     40 H18         0.6093   -0.3648    0.8322 H         1 <0>         0.0658
     41 H19        -1.0150   -0.3828    0.1031 H         1 <0>         0.0729
     42 H20         0.7005   -1.5756   -1.2979 H         1 <0>         0.0779
     43 H21        -0.0472   -0.1969   -2.1446 H         1 <0>         0.0846
     44 H22         2.8170   -1.7173   -1.9535 H         1 <0>         0.1336
     45 H23         4.0477    1.5539   -3.2614 H         1 <0>         0.0902
     46 H24         5.4318    1.7260   -2.2766 H         1 <0>         0.0916
     47 H25         3.5601    3.1796   -1.5099 H         1 <0>         0.0833
     48 H26         3.9763    1.9396   -0.3100 H         1 <0>         0.0700
@<TRIPOS>BOND
     1    1    2 1
     2    1   27 1
     3    1   28 1
     4    1   29 1
     5    2    9 1
     6    2   13 1
     7    2    3 1
     8    3    4 1
     9    3   30 1
    10    3   31 1
    11    4    5 1
    12    4   32 1
    13    4   33 1
    14    5    6 1
    15    5   25 1
    16    5    7 1
    17    7    8 1
    18    7    9 1
    19    7   17 1
    20    9   10 1
    21    9   11 1
    22   11   12 1
    23   11   34 1
    24   11   35 1
    25   12   13 1
    26   12   36 1
    27   12   37 1
    28   13   14 1
    29   13   16 1
    30   14   15 3
    31   15   38 1
    32   16   39 1
    33   17   18 1
    34   17   40 1
    35   17   41 1
    36   18   19 1
    37   18   42 1
    38   18   43 1
    39   19   25 1
    40   19   20 2
    41   20   21 1
    42   20   44 1
    43   21   22 2
    44   21   23 1
    45   23   24 1
    46   23   45 1
    47   23   46 1
    48   24   25 1
    49   24   47 1
    50   24   48 1
    51   25   26 1
@<TRIPOS>MOLECULE
ZINC03814416
   43    46     0     0     0
SMALL
USER_CHARGES

@<TRIPOS>ATOM
      1 C1         -4.4750   -0.2562    1.5791 C.3       1 <0>        -0.1360
      2 C2         -4.4278    1.1480    2.1850 C.3       1 <0>        -0.0588
      3 C3         -5.0559    2.1285    1.2169 C.3       1 <0>        -0.1027
      4 C4         -4.3168    1.9956   -0.1283 C.3       1 <0>        -0.1134
      5 C5         -2.8255    2.2396    0.0519 C.3       1 <0>        -0.0437
      6 H1         -2.7049    3.2620    0.4099 H         1 <0>         0.0746
      7 C6         -2.0772    2.1120   -1.2428 C.ar      1 <0>        -0.0686
      8 C7         -2.7041    2.5285   -2.4091 C.ar      1 <0>        -0.1204
      9 C8         -2.0509    2.4529   -3.6217 C.ar      1 <0>        -0.1229
     10 C9         -0.7616    1.9565   -3.6759 C.ar      1 <0>        -0.1222
     11 C10        -0.1392    1.5369   -2.5191 C.ar      1 <0>        -0.1223
     12 C11        -0.7943    1.6091   -1.2961 C.ar      1 <0>        -0.0754
     13 C12        -0.0552    1.1239   -0.0769 C.3       1 <0>        -0.0810
     14 C13        -0.7323    1.6015    1.2072 C.3       1 <0>        -0.1128
     15 C14        -2.2254    1.2972    1.1035 C.3       1 <0>        -0.0745
     16 H2         -2.3851    0.2614    0.8039 H         1 <0>         0.0857
     17 C15        -2.9484    1.5704    2.4062 C.3       1 <0>        -0.0826
     18 H3         -2.8858    2.6281    2.6620 H         1 <0>         0.0774
     19 C16        -2.5516    0.6877    3.5945 C.3       1 <0>        -0.1122
     20 C17        -3.8008    0.7606    4.5147 C.3       1 <0>        -0.1565
     21 C18        -4.9985    1.1149    3.5980 C.3       1 <0>         0.1108
     22 H4         -5.4043    2.0908    3.8645 H         1 <0>         0.0571
     23 O1         -6.0128    0.1133    3.6992 O.3       1 <0>        -0.5599
     24 H5         -3.9360   -0.9490    2.2253 H         1 <0>         0.0539
     25 H6         -5.5126   -0.5775    1.4873 H         1 <0>         0.0609
     26 H7         -4.0103   -0.2424    0.5933 H         1 <0>         0.0603
     27 H8         -6.1115    1.8915    1.0836 H         1 <0>         0.0681
     28 H9         -4.9496    3.1440    1.5983 H         1 <0>         0.0627
     29 H10        -4.7176    2.7251   -0.8320 H         1 <0>         0.0656
     30 H11        -4.4711    0.9923   -0.5253 H         1 <0>         0.0702
     31 H12        -3.7117    2.9151   -2.3668 H         1 <0>         0.1220
     32 H13        -2.5446    2.7797   -4.5250 H         1 <0>         0.1205
     33 H14        -0.2432    1.8978   -4.6216 H         1 <0>         0.1203
     34 H15         0.8676    1.1486   -2.5643 H         1 <0>         0.1191
     35 H16        -0.0315    0.0342   -0.0840 H         1 <0>         0.0751
     36 H17         0.9662    1.5033   -0.1043 H         1 <0>         0.0738
     37 H18        -0.3098    1.0754    2.0632 H         1 <0>         0.0703
     38 H19        -0.5831    2.6748    1.3243 H         1 <0>         0.0647
     39 H20        -2.3709   -0.3371    3.2702 H         1 <0>         0.0712
     40 H21        -1.6756    1.0934    4.1006 H         1 <0>         0.0667
     41 H22        -3.6651    1.5356    5.2691 H         1 <0>         0.0671
     42 H23        -3.9691   -0.2037    4.9942 H         1 <0>         0.0727
     43 H24        -6.4129    0.0459    4.5769 H         1 <0>         0.3749
@<TRIPOS>BOND
     1    1    2 1
     2    1   24 1
     3    1   25 1
     4    1   26 1
     5    2   17 1
     6    2   21 1
     7    2    3 1
     8    3    4 1
     9    3   27 1
    10    3   28 1
    11    4    5 1
    12    4   29 1
    13    4   30 1
    14    5    6 1
    15    5   15 1
    16    5    7 1
    17    7   12 ar
    18    7    8 ar
    19    8    9 ar
    20    8   31 1
    21    9   10 ar
    22    9   32 1
    23   10   11 ar
    24   10   33 1
    25   11   12 ar
    26   11   34 1
    27   12   13 1
    28   13   14 1
    29   13   35 1
    30   13   36 1
    31   14   15 1
    32   14   37 1
    33   14   38 1
    34   15   16 1
    35   15   17 1
    36   17   18 1
    37   17   19 1
    38   19   20 1
    39   19   39 1
    40   19   40 1
    41   20   21 1
    42   20   41 1
    43   20   42 1
    44   21   22 1
    45   21   23 1
    46   23   43 1
@<TRIPOS>MOLECULE
ZINC03814419
   48    51     0     0     0
SMALL
USER_CHARGES

@<TRIPOS>ATOM
      1 C1         -1.2488    3.3629    1.0694 C.3       1 <0>        -0.1417
      2 C2         -0.6367    1.9806    1.3053 C.3       1 <0>        -0.0455
      3 C3         -1.7011    1.1460    1.9738 C.3       1 <0>        -0.1012
      4 C4         -2.1410    1.8367    3.2791 C.3       1 <0>        -0.1148
      5 C5         -0.9406    2.1002    4.1770 C.3       1 <0>        -0.0460
      6 H1         -0.5041    1.1370    4.4410 H         1 <0>         0.0754
      7 C6          0.1339    2.9192    3.4574 C.3       1 <0>        -0.0731
      8 H2         -0.2768    3.8746    3.1307 H         1 <0>         0.0870
      9 C7          0.5836    2.1073    2.2596 C.3       1 <0>        -0.0795
     10 H3          0.9290    1.1226    2.5743 H         1 <0>         0.0773
     11 C8          1.6189    2.7733    1.3466 C.3       1 <0>        -0.1128
     12 C9          1.4279    2.0244   -0.0007 C.3       1 <0>        -0.1445
     13 C10        -0.0179    1.4678    0.0101 C.3       1 <0>         0.2530
     14 C11         0.0021   -0.0041    0.0020 C.1       1 <0>        -0.2098
     15 C12         0.0180   -1.1779   -0.0044 C.1       1 <0>        -0.1809
     16 O1         -0.7460    1.9587   -1.1172 O.3       1 <0>        -0.5403
     17 C13         1.2737    3.1294    4.4575 C.3       1 <0>        -0.1128
     18 C14         0.7532    4.0511    5.5532 C.3       1 <0>        -0.0830
     19 C15        -0.5983    3.6159    6.0822 C.2       1 <0>        -0.1135
     20 C16        -1.3716    2.7784    5.4573 C.2       1 <0>        -0.1090
     21 C17        -2.7670    2.4141    5.9150 C.3       1 <0>        -0.0811
     22 C18        -2.9518    2.6276    7.4129 C.3       1 <0>        -0.1630
     23 C19        -2.4275    4.0184    7.7188 C.2       1 <0>         0.3635
     24 O2         -3.1330    4.8774    8.1909 O.2       1 <0>        -0.4502
     25 C20        -0.9774    4.2653    7.4003 C.3       1 <0>        -0.1279
     26 H4         -2.0377    3.2880    0.3210 H         1 <0>         0.0641
     27 H5         -1.6679    3.7387    2.0028 H         1 <0>         0.0645
     28 H6         -0.4768    4.0466    0.7165 H         1 <0>         0.0550
     29 H7         -1.2629    0.1738    2.1996 H         1 <0>         0.0597
     30 H8         -2.5600    1.0200    1.3147 H         1 <0>         0.0686
     31 H9         -2.8486    1.1952    3.8043 H         1 <0>         0.0692
     32 H10        -2.6245    2.7835    3.0385 H         1 <0>         0.0704
     33 H11         2.6271    2.6220    1.7323 H         1 <0>         0.0706
     34 H12         1.4075    3.8362    1.2303 H         1 <0>         0.0754
     35 H13         2.1434    1.2059   -0.0785 H         1 <0>         0.0725
     36 H14         1.5570    2.7143   -0.8347 H         1 <0>         0.0810
     37 H15         0.0322   -2.2278   -0.0102 H         1 <0>         0.2182
     38 H16        -0.3845    1.6812   -1.9701 H         1 <0>         0.3785
     39 H17         1.5703    2.1728    4.8877 H         1 <0>         0.0660
     40 H18         2.1248    3.5917    3.9576 H         1 <0>         0.0711
     41 H19         0.6667    5.0612    5.1530 H         1 <0>         0.0741
     42 H20         1.4684    4.0579    6.3757 H         1 <0>         0.0710
     43 H21        -3.4882    3.0301    5.3778 H         1 <0>         0.0800
     44 H22        -2.9545    1.3663    5.6807 H         1 <0>         0.0857
     45 H23        -2.4406    1.9298    7.9146 H         1 <0>         0.0906
     46 H24        -4.0080    2.5609    7.6737 H         1 <0>         0.0914
     47 H25        -0.4179    3.8806    8.1345 H         1 <0>         0.0994
     48 H26        -0.8022    5.3392    7.3347 H         1 <0>         0.0976
@<TRIPOS>BOND
     1    1    2 1
     2    1   26 1
     3    1   27 1
     4    1   28 1
     5    2    9 1
     6    2   13 1
     7    2    3 1
     8    3    4 1
     9    3   29 1
    10    3   30 1
    11    4    5 1
    12    4   31 1
    13    4   32 1
    14    5    6 1
    15    5   20 1
    16    5    7 1
    17    7    8 1
    18    7    9 1
    19    7   17 1
    20    9   10 1
    21    9   11 1
    22   11   12 1
    23   11   33 1
    24   11   34 1
    25   12   13 1
    26   12   35 1
    27   12   36 1
    28   13   14 1
    29   13   16 1
    30   14   15 3
    31   15   37 1
    32   16   38 1
    33   17   18 1
    34   17   39 1
    35   17   40 1
    36   18   19 1
    37   18   41 1
    38   18   42 1
    39   19   25 1
    40   19   20 2
    41   20   21 1
    42   21   22 1
    43   21   43 1
    44   21   44 1
    45   22   23 1
    46   22   45 1
    47   22   46 1
    48   23   24 2
    49   23   25 1
    50   25   47 1
    51   25   48 1
@<TRIPOS>MOLECULE
ZINC03815415
   44    47     0     0     0
SMALL
USER_CHARGES

@<TRIPOS>ATOM
      1 C1          4.3920    4.6805    2.5950 C.3       1 <0>        -0.1518
      2 C2          4.7264    5.1834    1.1893 C.3       1 <0>        -0.0589
      3 C3          3.5919    6.0435    0.6740 C.3       1 <0>        -0.0921
      4 C4          2.3012    5.2048    0.7398 C.3       1 <0>        -0.1158
      5 C5          2.4573    3.9182   -0.0578 C.3       1 <0>        -0.0432
      6 H1          2.6454    4.1890   -1.0967 H         1 <0>         0.0772
      7 C6          1.2137    3.0792   -0.0188 C.ar      1 <0>        -0.0760
      8 C7         -0.0156    3.7252   -0.0100 C.ar      1 <0>        -0.1032
      9 C8         -1.1893    3.0021   -0.0024 C.ar      1 <0>        -0.1473
     10 C9         -1.1417    1.6154   -0.0094 C.ar      1 <0>         0.1017
     11 C10         0.0834    0.9717   -0.0064 C.ar      1 <0>        -0.1477
     12 C11         1.2650    1.7007   -0.0088 C.ar      1 <0>        -0.0582
     13 C12         2.5602    0.9324    0.0122 C.3       1 <0>        -0.0815
     14 C13         3.7388    1.8229   -0.3794 C.3       1 <0>        -0.1140
     15 C14         3.6608    3.1092    0.4425 C.3       1 <0>        -0.0764
     16 H2          3.5368    2.8805    1.5010 H         1 <0>         0.0856
     17 C15         4.8887    3.9730    0.2279 C.3       1 <0>        -0.0789
     18 H3          4.9542    4.3111   -0.8062 H         1 <0>         0.0815
     19 C16         6.2197    3.3802    0.7023 C.3       1 <0>        -0.1137
     20 C17         7.0963    4.6399    0.9423 C.3       1 <0>        -0.1568
     21 C18         6.1155    5.8114    1.2005 C.3       1 <0>         0.1102
     22 H4          6.3168    6.2657    2.1706 H         1 <0>         0.0569
     23 O1          6.2260    6.7876    0.1628 O.3       1 <0>        -0.5609
     24 O2         -2.2927    0.8927   -0.0135 O.3       1 <0>        -0.5001
     25 H5          3.4206    4.1861    2.5825 H         1 <0>         0.0721
     26 H6          5.1554    3.9733    2.9192 H         1 <0>         0.0584
     27 H7          4.3615    5.5239    3.2849 H         1 <0>         0.0548
     28 H8          3.7896    6.3371   -0.3569 H         1 <0>         0.0714
     29 H9          3.4881    6.9310    1.2983 H         1 <0>         0.0630
     30 H10         1.4747    5.7844    0.3287 H         1 <0>         0.0650
     31 H11         2.0849    4.9591    1.7795 H         1 <0>         0.0676
     32 H12        -0.0524    4.8045   -0.0087 H         1 <0>         0.1276
     33 H13        -2.1411    3.5125    0.0042 H         1 <0>         0.1273
     34 H14         0.1206   -0.1076   -0.0068 H         1 <0>         0.1258
     35 H15         2.7267    0.5405    1.0156 H         1 <0>         0.0767
     36 H16         2.4931    0.1002   -0.6885 H         1 <0>         0.0751
     37 H17         3.6824    2.0614   -1.4415 H         1 <0>         0.0655
     38 H18         4.6758    1.3077   -0.1677 H         1 <0>         0.0711
     39 H19         6.0849    2.8220    1.6287 H         1 <0>         0.0695
     40 H20         6.6556    2.7451   -0.0689 H         1 <0>         0.0668
     41 H21         7.7370    4.4899    1.8112 H         1 <0>         0.0672
     42 H22         7.7029    4.8472    0.0608 H         1 <0>         0.0728
     43 H23         7.0893    7.2213    0.1211 H         1 <0>         0.3757
     44 H24        -2.6283    0.6827    0.8687 H         1 <0>         0.3897
@<TRIPOS>BOND
     1    1    2 1
     2    1   25 1
     3    1   26 1
     4    1   27 1
     5    2   17 1
     6    2   21 1
     7    2    3 1
     8    3    4 1
     9    3   28 1
    10    3   29 1
    11    4    5 1
    12    4   30 1
    13    4   31 1
    14    5    6 1
    15    5   15 1
    16    5    7 1
    17    7   12 ar
    18    7    8 ar
    19    8    9 ar
    20    8   32 1
    21    9   10 ar
    22    9   33 1
    23   10   11 ar
    24   10   24 1
    25   11   12 ar
    26   11   34 1
    27   12   13 1
    28   13   14 1
    29   13   35 1
    30   13   36 1
    31   14   15 1
    32   14   37 1
    33   14   38 1
    34   15   16 1
    35   15   17 1
    36   17   18 1
    37   17   19 1
    38   19   20 1
    39   19   39 1
    40   19   40 1
    41   20   21 1
    42   20   41 1
    43   20   42 1
    44   21   22 1
    45   21   23 1
    46   23   43 1
    47   24   44 1
@<TRIPOS>MOLECULE
ZINC03815416
   42    45     0     0     0
SMALL
USER_CHARGES

@<TRIPOS>ATOM
      1 C1          5.8243    6.5387    0.2879 C.3       1 <0>        -0.1443
      2 C2          6.9376    5.5168    0.0489 C.3       1 <0>        -0.1255
      3 C3          6.7071    4.8251   -1.2777 C.3       1 <0>        -0.0974
      4 C4          5.2901    4.2207   -1.2507 C.3       1 <0>        -0.1144
      5 C5          5.1196    3.2842   -0.0602 C.3       1 <0>        -0.0437
      6 H1          5.8328    2.4721   -0.2014 H         1 <0>         0.0766
      7 C6          3.7451    2.6848    0.0017 C.ar      1 <0>        -0.0769
      8 C7          3.0966    2.4019   -1.1931 C.ar      1 <0>        -0.1029
      9 C8          1.8435    1.8276   -1.1939 C.ar      1 <0>        -0.1470
     10 C9          1.2240    1.5306    0.0116 C.ar      1 <0>         0.1032
     11 C10         1.8654    1.8226    1.2027 C.ar      1 <0>        -0.1477
     12 C11         3.1284    2.3997    1.2023 C.ar      1 <0>        -0.0577
     13 C12         3.7613    2.6957    2.5366 C.3       1 <0>        -0.0817
     14 C13         5.2585    2.9657    2.3918 C.3       1 <0>        -0.1133
     15 C14         5.4550    3.9800    1.2652 C.3       1 <0>        -0.0739
     16 H2          4.8005    4.8378    1.4199 H         1 <0>         0.0882
     17 C15         6.8957    4.4409    1.1698 C.3       1 <0>        -0.0780
     18 H3          7.5542    3.6050    0.9336 H         1 <0>         0.0853
     19 C16         7.4217    5.2433    2.3666 C.3       1 <0>        -0.1134
     20 C17         8.5725    6.0744    1.7358 C.3       1 <0>        -0.1758
     21 C18         8.2687    6.1783    0.2444 C.2       1 <0>         0.3805
     22 O1          8.9588    6.6893   -0.6047 O.2       1 <0>        -0.4374
     23 O2         -0.0097    0.9607    0.0228 O.3       1 <0>        -0.5004
     24 H4          5.9179    6.9495    1.2932 H         1 <0>         0.0641
     25 H5          5.9067    7.3434   -0.4426 H         1 <0>         0.0596
     26 H6          4.8550    6.0510    0.1835 H         1 <0>         0.0809
     27 H7          6.7851    5.5480   -2.0897 H         1 <0>         0.0731
     28 H8          7.4445    4.0343   -1.4150 H         1 <0>         0.0674
     29 H9          4.5584    5.0241   -1.1656 H         1 <0>         0.0705
     30 H10         5.1156    3.6725   -2.1765 H         1 <0>         0.0703
     31 H11         3.5790    2.6338   -2.1312 H         1 <0>         0.1276
     32 H12         1.3467    1.6097   -2.1278 H         1 <0>         0.1278
     33 H13         1.3811    1.5955    2.1410 H         1 <0>         0.1264
     34 H14         3.2811    3.5714    2.9731 H         1 <0>         0.0781
     35 H15         3.6147    1.8422    3.1985 H         1 <0>         0.0762
     36 H16         5.6507    3.3715    3.3244 H         1 <0>         0.0736
     37 H17         5.7772    2.0389    2.1466 H         1 <0>         0.0668
     38 H18         6.6459    5.8970    2.7653 H         1 <0>         0.0794
     39 H19         7.8042    4.5780    3.1406 H         1 <0>         0.0786
     40 H20         9.4443    5.6113    1.8954 H         1 <0>         0.0887
     41 H21         8.6030    7.0690    2.1807 H         1 <0>         0.0977
     42 H22         0.0037   -0.0062    0.0188 H         1 <0>         0.3906
@<TRIPOS>BOND
     1    1    2 1
     2    1   24 1
     3    1   25 1
     4    1   26 1
     5    2   17 1
     6    2   21 1
     7    2    3 1
     8    3    4 1
     9    3   27 1
    10    3   28 1
    11    4    5 1
    12    4   29 1
    13    4   30 1
    14    5    6 1
    15    5   15 1
    16    5    7 1
    17    7   12 ar
    18    7    8 ar
    19    8    9 ar
    20    8   31 1
    21    9   10 ar
    22    9   32 1
    23   10   11 ar
    24   10   23 1
    25   11   12 ar
    26   11   33 1
    27   12   13 1
    28   13   14 1
    29   13   34 1
    30   13   35 1
    31   14   15 1
    32   14   36 1
    33   14   37 1
    34   15   16 1
    35   15   17 1
    36   17   18 1
    37   17   19 1
    38   19   20 1
    39   19   38 1
    40   19   39 1
    41   20   21 1
    42   20   40 1
    43   20   41 1
    44   21   22 2
    45   23   42 1
@<TRIPOS>MOLECULE
ZINC03815417
   50    53     0     0     0
SMALL
USER_CHARGES

@<TRIPOS>ATOM
      1 C1         -0.0981    3.4841   -0.7859 C.3       1 <0>        -0.1299
      2 C2          1.1667    3.0809   -0.0252 C.3       1 <0>        -0.0391
      3 C3          1.3088    3.9389    1.2143 C.3       1 <0>        -0.1231
      4 C4          1.2612    5.4130    0.7689 C.3       1 <0>         0.0982
      5 H1          1.3976    6.0552    1.6390 H         1 <0>         0.0632
      6 C5          2.3666    5.6925   -0.2389 C.3       1 <0>        -0.0405
      7 H2          3.3170    5.5091    0.2624 H         1 <0>         0.0863
      8 C6          2.3548    7.1214   -0.6995 C.ar      1 <0>        -0.0652
      9 C7          1.9755    8.1016    0.2077 C.ar      1 <0>        -0.0992
     10 C8          1.9562    9.4299   -0.1605 C.ar      1 <0>        -0.1465
     11 C9          2.3209    9.7903   -1.4498 C.ar      1 <0>         0.1023
     12 C10         2.6958    8.8129   -2.3551 C.ar      1 <0>        -0.1467
     13 C11         2.7089    7.4745   -1.9851 C.ar      1 <0>        -0.0549
     14 C12         3.1018    6.4649   -3.0313 C.3       1 <0>        -0.0812
     15 C13         3.4164    5.1078   -2.4032 C.3       1 <0>        -0.1135
     16 C14         2.2795    4.7495   -1.4459 C.3       1 <0>        -0.0736
     17 H3          1.3139    4.8683   -1.9373 H         1 <0>         0.0988
     18 C15         2.4139    3.3365   -0.9168 C.3       1 <0>        -0.0844
     19 H4          3.3298    3.2326   -0.3349 H         1 <0>         0.0771
     20 C16         2.2837    2.2158   -1.9544 C.3       1 <0>        -0.1103
     21 C17         1.8535    0.9930   -1.0951 C.3       1 <0>        -0.1442
     22 C18         1.1820    1.5703    0.1762 C.3       1 <0>         0.2492
     23 C19         1.9684    1.2229    1.3710 C.1       1 <0>        -0.2082
     24 C20         2.5956    0.9459    2.3240 C.1       1 <0>        -0.1842
     25 O1         -0.1521    1.0737    0.3007 O.3       1 <0>        -0.5391
     26 O2          2.3098   11.0972   -1.8222 O.3       1 <0>        -0.5007
     27 O3         -0.0049    5.6953    0.1693 O.3       1 <0>        -0.3612
     28 C21        -1.0030    6.1287    1.0957 C.3       1 <0>         0.0234
     29 H5         -0.9515    3.4649   -0.1081 H         1 <0>         0.0540
     30 H6          0.0245    4.4901   -1.1873 H         1 <0>         0.0955
     31 H7         -0.2684    2.7847   -1.6044 H         1 <0>         0.0445
     32 H8          0.4835    3.7403    1.8981 H         1 <0>         0.0690
     33 H9          2.2575    3.7237    1.7061 H         1 <0>         0.0732
     34 H10         1.6926    7.8207    1.2114 H         1 <0>         0.1202
     35 H11         1.6583   10.1861    0.5507 H         1 <0>         0.1259
     36 H12         2.9802    9.0936   -3.3584 H         1 <0>         0.1259
     37 H13         2.2824    6.3486   -3.7405 H         1 <0>         0.0787
     38 H14         3.9838    6.8249   -3.5611 H         1 <0>         0.0754
     39 H15         4.3557    5.1659   -1.8533 H         1 <0>         0.0651
     40 H16         3.4926    4.3504   -3.1834 H         1 <0>         0.0734
     41 H17         1.5178    2.4592   -2.6908 H         1 <0>         0.0764
     42 H18         3.2410    2.0269   -2.4401 H         1 <0>         0.0704
     43 H19         2.7266    0.4009   -0.8210 H         1 <0>         0.0719
     44 H20         1.1425    0.3786   -1.6475 H         1 <0>         0.0807
     45 H21         3.1566    0.6981    3.1763 H         1 <0>         0.2178
     46 H22        -0.2060    0.1145    0.4109 H         1 <0>         0.3770
     47 H23         1.4662   11.3942   -2.1901 H         1 <0>         0.3898
     48 H24        -1.1669    5.3521    1.8428 H         1 <0>         0.0400
     49 H25        -0.6695    7.0421    1.5882 H         1 <0>         0.0378
     50 H26        -1.9338    6.3223    0.5626 H         1 <0>         0.0842
@<TRIPOS>BOND
     1    1    2 1
     2    1   29 1
     3    1   30 1
     4    1   31 1
     5    2   18 1
     6    2   22 1
     7    2    3 1
     8    3    4 1
     9    3   32 1
    10    3   33 1
    11    4    5 1
    12    4    6 1
    13    4   27 1
    14    6    7 1
    15    6   16 1
    16    6    8 1
    17    8   13 ar
    18    8    9 ar
    19    9   10 ar
    20    9   34 1
    21   10   11 ar
    22   10   35 1
    23   11   12 ar
    24   11   26 1
    25   12   13 ar
    26   12   36 1
    27   13   14 1
    28   14   15 1
    29   14   37 1
    30   14   38 1
    31   15   16 1
    32   15   39 1
    33   15   40 1
    34   16   17 1
    35   16   18 1
    36   18   19 1
    37   18   20 1
    38   20   21 1
    39   20   41 1
    40   20   42 1
    41   21   22 1
    42   21   43 1
    43   21   44 1
    44   22   23 1
    45   22   25 1
    46   23   24 3
    47   24   45 1
    48   25   46 1
    49   26   47 1
    50   27   28 1
    51   28   48 1
    52   28   49 1
    53   28   50 1
@<TRIPOS>MOLECULE
ZINC03815418
   45    48     0     0     0
SMALL
USER_CHARGES

@<TRIPOS>ATOM
      1 C1          0.2393    4.2546    1.4140 C.3       1 <0>        -0.1384
      2 C2          0.3784    2.8345    1.9661 C.3       1 <0>        -0.0563
      3 C3          0.3811    2.8757    3.4799 C.3       1 <0>        -0.1017
      4 C4          1.5111    3.8261    3.9197 C.3       1 <0>        -0.1128
      5 C5          2.8478    3.3691    3.3535 C.3       1 <0>        -0.0432
      6 H1          3.0664    2.3826    3.7623 H         1 <0>         0.0770
      7 C6          3.9689    4.2799    3.7618 C.ar      1 <0>        -0.0771
      8 C7          3.9180    4.8602    5.0222 C.ar      1 <0>        -0.1031
      9 C8          4.9250    5.6983    5.4510 C.ar      1 <0>        -0.1469
     10 C9          6.0000    5.9637    4.6146 C.ar      1 <0>         0.1023
     11 C10         6.0492    5.3876    3.3573 C.ar      1 <0>        -0.1477
     12 C11         5.0329    4.5459    2.9251 C.ar      1 <0>        -0.0582
     13 C12         5.1506    3.9626    1.5415 C.3       1 <0>        -0.0814
     14 C13         4.1784    2.7999    1.3449 C.3       1 <0>        -0.1128
     15 C14         2.7974    3.2465    1.8249 C.3       1 <0>        -0.0740
     16 H2          2.5323    4.2086    1.3866 H         1 <0>         0.0865
     17 C15         1.7290    2.2236    1.4986 C.3       1 <0>        -0.0782
     18 H3          1.9198    1.2792    2.0084 H         1 <0>         0.0820
     19 C16         1.4583    1.9841    0.0094 C.3       1 <0>        -0.1446
     20 C17         0.0091    1.4252    0.0044 C.3       1 <0>         0.0667
     21 H4         -0.5315    1.7951   -0.8668 H         1 <0>         0.0648
     22 C18        -0.6608    1.9370    1.3042 C.3       1 <0>         0.1198
     23 H5         -0.9075    1.0996    1.9569 H         1 <0>         0.0706
     24 O1         -1.8368    2.6869    0.9931 O.3       1 <0>        -0.5545
     25 O2          0.0345   -0.0035   -0.0047 O.3       1 <0>        -0.5650
     26 O3          6.9998    6.7860    5.0282 O.3       1 <0>        -0.5003
     27 H6          0.3432    4.2345    0.3292 H         1 <0>         0.0535
     28 H7         -0.7405    4.6527    1.6779 H         1 <0>         0.0640
     29 H8          1.0162    4.8884    1.8417 H         1 <0>         0.0619
     30 H9         -0.5772    3.2488    3.8412 H         1 <0>         0.0702
     31 H10         0.5619    1.8767    3.8765 H         1 <0>         0.0654
     32 H11         1.2942    4.8323    3.5609 H         1 <0>         0.0711
     33 H12         1.5673    3.8380    5.0082 H         1 <0>         0.0674
     34 H13         3.0814    4.6530    5.6729 H         1 <0>         0.1278
     35 H14         4.8777    6.1457    6.4329 H         1 <0>         0.1277
     36 H15         6.8855    5.5949    2.7061 H         1 <0>         0.1260
     37 H16         6.1693    3.6056    1.3902 H         1 <0>         0.0759
     38 H17         4.9319    4.7387    0.8081 H         1 <0>         0.0770
     39 H18         4.5102    1.9405    1.9274 H         1 <0>         0.0664
     40 H19         4.1324    2.5336    0.2889 H         1 <0>         0.0707
     41 H20         2.1557    1.2512   -0.3963 H         1 <0>         0.0735
     42 H21         1.5134    2.9178   -0.5504 H         1 <0>         0.0787
     43 H22        -2.5179    2.1774    0.5331 H         1 <0>         0.3783
     44 H23         0.4643   -0.3843   -0.7827 H         1 <0>         0.3806
     45 H24         6.8570    7.7179    4.8131 H         1 <0>         0.3901
@<TRIPOS>BOND
     1    1    2 1
     2    1   27 1
     3    1   28 1
     4    1   29 1
     5    2   17 1
     6    2   22 1
     7    2    3 1
     8    3    4 1
     9    3   30 1
    10    3   31 1
    11    4    5 1
    12    4   32 1
    13    4   33 1
    14    5    6 1
    15    5   15 1
    16    5    7 1
    17    7   12 ar
    18    7    8 ar
    19    8    9 ar
    20    8   34 1
    21    9   10 ar
    22    9   35 1
    23   10   11 ar
    24   10   26 1
    25   11   12 ar
    26   11   36 1
    27   12   13 1
    28   13   14 1
    29   13   37 1
    30   13   38 1
    31   14   15 1
    32   14   39 1
    33   14   40 1
    34   15   16 1
    35   15   17 1
    36   17   18 1
    37   17   19 1
    38   19   20 1
    39   19   41 1
    40   19   42 1
    41   20   21 1
    42   20   22 1
    43   20   25 1
    44   22   23 1
    45   22   24 1
    46   24   43 1
    47   25   44 1
    48   26   45 1
@<TRIPOS>MOLECULE
ZINC03815419
   45    48     0     0     0
SMALL
USER_CHARGES

@<TRIPOS>ATOM
      1 C1          8.0392    1.6957   -0.3715 C.3       1 <0>        -0.1342
      2 C2          7.9808    3.2094   -0.1563 C.3       1 <0>        -0.0559
      3 C3          7.3298    3.5385    1.1723 C.3       1 <0>        -0.1005
      4 C4          5.9345    2.8857    1.1823 C.3       1 <0>        -0.1128
      5 C5          5.0932    3.3538    0.0036 C.3       1 <0>        -0.0432
      6 H1          4.9377    4.4259    0.1241 H         1 <0>         0.0775
      7 C6          3.7392    2.7057   -0.0327 C.ar      1 <0>        -0.0588
      8 C7          3.1234    2.4029    1.1743 C.ar      1 <0>        -0.1305
      9 C8          1.8678    1.8247    1.1976 C.ar      1 <0>         0.0787
     10 C9          1.2237    1.5328   -0.0014 C.ar      1 <0>         0.0787
     11 C10         1.8427    1.8303   -1.2006 C.ar      1 <0>        -0.1325
     12 C11         3.1034    2.4154   -1.2218 C.ar      1 <0>        -0.0659
     13 C12         3.7187    2.6951   -2.5678 C.3       1 <0>        -0.0804
     14 C13         4.9126    3.6414   -2.4479 C.3       1 <0>        -0.1149
     15 C14         5.8187    3.1270   -1.3294 C.3       1 <0>        -0.0730
     16 H2          6.0070    2.0625   -1.4692 H         1 <0>         0.0845
     17 C15         7.1327    3.8749   -1.2763 C.3       1 <0>        -0.0834
     18 H3          6.9530    4.9219   -1.0324 H         1 <0>         0.0745
     19 C16         8.0292    3.7759   -2.5063 C.3       1 <0>        -0.1107
     20 C17         9.4789    3.8012   -1.9606 C.3       1 <0>        -0.1567
     21 C18         9.3631    3.8234   -0.4117 C.3       1 <0>         0.1081
     22 H4          9.3990    4.8463   -0.0367 H         1 <0>         0.0606
     23 O1         10.3905    3.0285    0.1838 O.3       1 <0>        -0.5591
     24 O2         -0.0110    0.9628    0.0073 O.3       1 <0>        -0.4885
     25 O3          1.2681    1.5384    2.3841 O.3       1 <0>        -0.4880
     26 H5          8.4942    1.4835   -1.3390 H         1 <0>         0.0545
     27 H6          8.6357    1.2392    0.4185 H         1 <0>         0.0601
     28 H7          7.0294    1.2860   -0.3471 H         1 <0>         0.0595
     29 H8          7.9313    3.1378    1.9882 H         1 <0>         0.0704
     30 H9          7.2343    4.6190    1.2797 H         1 <0>         0.0640
     31 H10         6.0442    1.8031    1.1192 H         1 <0>         0.0682
     32 H11         5.4252    3.1413    2.1115 H         1 <0>         0.0660
     33 H12         3.6277    2.6251    2.1030 H         1 <0>         0.1343
     34 H13         1.3420    1.6055   -2.1308 H         1 <0>         0.1316
     35 H14         4.0509    1.7560   -3.0103 H         1 <0>         0.0780
     36 H15         2.9687    3.1489   -3.2156 H         1 <0>         0.0770
     37 H16         5.4634    3.6596   -3.3883 H         1 <0>         0.0727
     38 H17         4.5634    4.6452   -2.2060 H         1 <0>         0.0664
     39 H18         7.8415    2.8421   -3.0362 H         1 <0>         0.0683
     40 H19         7.8583    4.6255   -3.1674 H         1 <0>         0.0663
     41 H20        10.0156    2.9090   -2.2829 H         1 <0>         0.0740
     42 H21         9.9950    4.6951   -2.3109 H         1 <0>         0.0652
     43 H22        11.2869    3.3350   -0.0100 H         1 <0>         0.3762
     44 H23         0.0021   -0.0041    0.0020 H         1 <0>         0.3867
     45 H24         1.4671    0.6545    2.7222 H         1 <0>         0.3866
@<TRIPOS>BOND
     1    1    2 1
     2    1   26 1
     3    1   27 1
     4    1   28 1
     5    2   17 1
     6    2   21 1
     7    2    3 1
     8    3    4 1
     9    3   29 1
    10    3   30 1
    11    4    5 1
    12    4   31 1
    13    4   32 1
    14    5    6 1
    15    5   15 1
    16    5    7 1
    17    7   12 ar
    18    7    8 ar
    19    8    9 ar
    20    8   33 1
    21    9   10 ar
    22    9   25 1
    23   10   11 ar
    24   10   24 1
    25   11   12 ar
    26   11   34 1
    27   12   13 1
    28   13   14 1
    29   13   35 1
    30   13   36 1
    31   14   15 1
    32   14   37 1
    33   14   38 1
    34   15   16 1
    35   15   17 1
    36   17   18 1
    37   17   19 1
    38   19   20 1
    39   19   39 1
    40   19   40 1
    41   20   21 1
    42   20   41 1
    43   20   42 1
    44   21   22 1
    45   21   23 1
    46   23   43 1
    47   24   44 1
    48   25   45 1
@<TRIPOS>MOLECULE
ZINC03815421
   51    54     0     0     0
SMALL
USER_CHARGES

@<TRIPOS>ATOM
      1 C1          2.0789    0.7613   -3.7111 C.3       1 <0>        -0.1460
      2 C2          1.4053    1.4637   -2.5306 C.3       1 <0>        -0.0480
      3 C3         -0.0407    1.0256   -2.4793 C.3       1 <0>        -0.0944
      4 C4         -0.7392    1.5926   -1.2452 C.3       1 <0>        -0.1306
      5 C5         -0.0127    1.0858    0.0080 C.3       1 <0>        -0.0623
      6 H1          0.0021   -0.0041    0.0020 H         1 <0>         0.0607
      7 C6          1.4183    1.6118   -0.0028 C.3       1 <0>        -0.0651
      8 H2          1.4058    2.7015    0.0147 H         1 <0>         0.0825
      9 C7          2.1770    1.1288   -1.2429 C.3       1 <0>        -0.0744
     10 H3          2.4429    0.0739   -1.1748 H         1 <0>         0.0807
     11 C8          3.4281    2.0470   -1.3795 C.3       1 <0>        -0.1232
     12 C9          2.8612    3.3583   -1.9667 C.3       1 <0>        -0.1564
     13 C10         1.5578    2.9810   -2.7001 C.3       1 <0>         0.1096
     14 H4          1.6338    3.2365   -3.7570 H         1 <0>         0.0561
     15 O1          0.4464    3.6571   -2.1088 O.3       1 <0>        -0.5443
     16 C11         2.1463    1.0848    1.2403 C.3       1 <0>        -0.0877
     17 C12         1.3754    1.4650    2.4696 C.2       1 <0>        -0.1568
     18 C13         0.0915    1.6710    2.4637 C.2       1 <0>        -0.1029
     19 C14        -0.7667    1.5738    1.2344 C.3       1 <0>        -0.0130
     20 C15        -1.9606    0.6580    1.5178 C.3       1 <0>        -0.1036
     21 C16        -2.7050    1.1654    2.7547 C.3       1 <0>        -0.1152
     22 C17        -1.7850    1.0981    3.9747 C.3       1 <0>         0.1089
     23 H5         -1.4224    0.0779    4.1003 H         1 <0>         0.0527
     24 C18        -0.5872    2.0311    3.7747 C.3       1 <0>        -0.1179
     25 O2         -2.5108    1.4925    5.1408 O.3       1 <0>        -0.5687
     26 C19        -1.3225    2.9657    0.9265 C.3       1 <0>        -0.1440
     27 H6          2.0694   -0.3162   -3.5463 H         1 <0>         0.0597
     28 H7          1.5381    0.9933   -4.6286 H         1 <0>         0.0557
     29 H8          3.1091    1.1062   -3.7994 H         1 <0>         0.0569
     30 H9         -0.5535    1.3774   -3.3745 H         1 <0>         0.0580
     31 H10        -0.0842   -0.0630   -2.4462 H         1 <0>         0.0524
     32 H11        -1.7778    1.2626   -1.2243 H         1 <0>         0.0507
     33 H12        -0.6997    2.6815   -1.2755 H         1 <0>         0.1207
     34 H13         3.8784    2.2279   -0.4035 H         1 <0>         0.0681
     35 H14         4.1557    1.6038   -2.0593 H         1 <0>         0.0650
     36 H15         2.6479    4.0654   -1.1651 H         1 <0>         0.0723
     37 H16         3.5736    3.7925   -2.6682 H         1 <0>         0.0647
     38 H17         0.5022    4.6213   -2.1559 H         1 <0>         0.3636
     39 H18         2.2253   -0.0008    1.1823 H         1 <0>         0.0702
     40 H19         3.1446    1.5198    1.2885 H         1 <0>         0.0678
     41 H20         1.9106    1.5720    3.4015 H         1 <0>         0.1013
     42 H21        -2.6340    0.6623    0.6607 H         1 <0>         0.0731
     43 H22        -1.6060   -0.3569    1.6974 H         1 <0>         0.0619
     44 H23        -3.0170    2.1971    2.5923 H         1 <0>         0.0746
     45 H24        -3.5835    0.5443    2.9293 H         1 <0>         0.0691
     46 H25         0.1194    1.9188    4.5970 H         1 <0>         0.0686
     47 H26        -0.9428    3.0606    3.7335 H         1 <0>         0.0785
     48 H27        -1.9884    1.4736    5.9543 H         1 <0>         0.3775
     49 H28        -1.9947    2.9073    0.0705 H         1 <0>         0.0647
     50 H29        -1.8689    3.3385    1.7929 H         1 <0>         0.0512
     51 H30        -0.4998    3.6428    0.6970 H         1 <0>         0.0567
@<TRIPOS>BOND
     1    1    2 1
     2    1   27 1
     3    1   28 1
     4    1   29 1
     5    2    9 1
     6    2   13 1
     7    2    3 1
     8    3    4 1
     9    3   30 1
    10    3   31 1
    11    4    5 1
    12    4   32 1
    13    4   33 1
    14    5    6 1
    15    5   19 1
    16    5    7 1
    17    7    8 1
    18    7    9 1
    19    7   16 1
    20    9   10 1
    21    9   11 1
    22   11   12 1
    23   11   34 1
    24   11   35 1
    25   12   13 1
    26   12   36 1
    27   12   37 1
    28   13   14 1
    29   13   15 1
    30   15   38 1
    31   16   17 1
    32   16   39 1
    33   16   40 1
    34   17   18 2
    35   17   41 1
    36   18   24 1
    37   18   19 1
    38   19   20 1
    39   19   26 1
    40   20   21 1
    41   20   42 1
    42   20   43 1
    43   21   22 1
    44   21   44 1
    45   21   45 1
    46   22   23 1
    47   22   24 1
    48   22   25 1
    49   24   46 1
    50   24   47 1
    51   25   48 1
    52   26   49 1
    53   26   50 1
    54   26   51 1
@<TRIPOS>MOLECULE
ZINC03815424
   49    52     0     0     0
SMALL
USER_CHARGES

@<TRIPOS>ATOM
      1 C1         -2.7364    1.9044    0.3653 C.3       1 <0>        -0.1386
      2 C2         -2.2496    1.4762   -1.0205 C.3       1 <0>        -0.0455
      3 C3         -2.2334   -0.0354   -1.1088 C.3       1 <0>        -0.1007
      4 C4         -1.3724   -0.5629    0.0549 C.3       1 <0>        -0.1137
      5 C5          0.0269    0.0326   -0.0006 C.3       1 <0>        -0.0381
      6 H1          0.4912   -0.2887   -0.9330 H         1 <0>         0.0735
      7 C6          0.8767   -0.4638    1.1324 C.ar      1 <0>        -0.1054
      8 C7          0.6926   -1.7689    1.5693 C.ar      1 <0>        -0.0795
      9 C8          1.4531   -2.2788    2.5998 C.ar      1 <0>        -0.2084
     10 C9          2.4129   -1.4801    3.2051 C.ar      1 <0>         0.1251
     11 C10         2.5941   -0.1783    2.7720 C.ar      1 <0>        -0.1563
     12 C11         1.8236    0.3361    1.7377 C.ar      1 <0>        -0.0342
     13 C12         2.0601    1.7683    1.3363 C.3       1 <0>        -0.0815
     14 C13         1.4255    2.0763   -0.0194 C.3       1 <0>        -0.1135
     15 C14        -0.0153    1.5661    0.0005 C.3       1 <0>        -0.0758
     16 H2         -0.5190    1.9203    0.8999 H         1 <0>         0.0877
     17 C15        -0.7790    1.9870   -1.2383 C.3       1 <0>        -0.0810
     18 H3         -0.3302    1.5484   -2.1295 H         1 <0>         0.0813
     19 C16        -1.0212    3.4925   -1.4003 C.3       1 <0>        -0.1123
     20 C17        -2.2821    3.5546   -2.3050 C.3       1 <0>        -0.1438
     21 C18        -3.0387    2.2196   -2.0922 C.3       1 <0>         0.2502
     22 C19        -3.0611    1.4411   -3.3413 C.1       1 <0>        -0.2085
     23 C20        -3.0790    0.8203   -4.3376 C.1       1 <0>        -0.1819
     24 O1         -4.3709    2.4718   -1.6407 O.3       1 <0>        -0.5405
     25 O2          3.1713   -1.9740    4.2189 O.3       1 <0>        -0.3191
     26 C21         2.9276   -3.3260    4.6122 C.3       1 <0>         0.0277
     27 H4         -2.1288    1.4200    1.1296 H         1 <0>         0.0655
     28 H5         -2.6484    2.9865    0.4630 H         1 <0>         0.0579
     29 H6         -3.7790    1.6119    0.4906 H         1 <0>         0.0635
     30 H7         -1.7997   -0.3455   -2.0595 H         1 <0>         0.0645
     31 H8         -3.2490   -0.4215   -1.0217 H         1 <0>         0.0666
     32 H9         -1.3037   -1.6487   -0.0124 H         1 <0>         0.0652
     33 H10        -1.8413   -0.2912    1.0006 H         1 <0>         0.0709
     34 H11        -0.0539   -2.3904    1.0974 H         1 <0>         0.1254
     35 H12         1.3024   -3.2945    2.9345 H         1 <0>         0.1267
     36 H13         3.3413    0.4432    3.2429 H         1 <0>         0.1280
     37 H14         1.6284    2.4263    2.0903 H         1 <0>         0.0790
     38 H15         3.1333    1.9497    1.2765 H         1 <0>         0.0768
     39 H16         1.9829    1.5729   -0.8094 H         1 <0>         0.0654
     40 H17         1.4321    3.1525   -0.1924 H         1 <0>         0.0720
     41 H18        -0.1679    3.9556   -1.8957 H         1 <0>         0.0694
     42 H19        -1.2125    3.9692   -0.4389 H         1 <0>         0.0767
     43 H20        -1.9883    3.6557   -3.3498 H         1 <0>         0.0720
     44 H21        -2.9134    4.3933   -2.0114 H         1 <0>         0.0808
     45 H22        -3.0950    0.2650   -5.2286 H         1 <0>         0.2180
     46 H23        -4.9208    2.9428   -2.2816 H         1 <0>         0.3780
     47 H24         3.5986   -3.5935    5.4285 H         1 <0>         0.1003
     48 H25         1.8941   -3.4274    4.9434 H         1 <0>         0.0552
     49 H26         3.1042   -3.9884    3.7648 H         1 <0>         0.0550
@<TRIPOS>BOND
     1    1    2 1
     2    1   27 1
     3    1   28 1
     4    1   29 1
     5    2   17 1
     6    2   21 1
     7    2    3 1
     8    3    4 1
     9    3   30 1
    10    3   31 1
    11    4    5 1
    12    4   32 1
    13    4   33 1
    14    5    6 1
    15    5   15 1
    16    5    7 1
    17    7   12 ar
    18    7    8 ar
    19    8    9 ar
    20    8   34 1
    21    9   10 ar
    22    9   35 1
    23   10   11 ar
    24   10   25 1
    25   11   12 ar
    26   11   36 1
    27   12   13 1
    28   13   14 1
    29   13   37 1
    30   13   38 1
    31   14   15 1
    32   14   39 1
    33   14   40 1
    34   15   16 1
    35   15   17 1
    36   17   18 1
    37   17   19 1
    38   19   20 1
    39   19   41 1
    40   19   42 1
    41   20   21 1
    42   20   43 1
    43   20   44 1
    44   21   22 1
    45   21   24 1
    46   22   23 3
    47   23   45 1
    48   24   46 1
    49   25   26 1
    50   26   47 1
    51   26   48 1
    52   26   49 1
@<TRIPOS>MOLECULE
ZINC03815427
   43    46     0     0     0
SMALL
USER_CHARGES

@<TRIPOS>ATOM
      1 C1         -0.1878    3.9422    0.4245 C.3       1 <0>        -0.1431
      2 C2         -1.3168    2.9587    0.7404 C.3       1 <0>        -0.0616
      3 C3         -1.9671    2.5667   -0.6115 C.3       1 <0>        -0.1194
      4 C4         -0.8770    1.6605   -1.2485 C.3       1 <0>        -0.1248
      5 C5         -0.0432    1.0954   -0.0683 C.3       1 <0>        -0.1161
      6 C6         -0.7918    1.5754    1.1776 C.3       1 <0>        -0.0718
      7 H1         -1.6716    0.9058    1.2910 H         1 <0>         0.0641
      8 C7         -0.0713    1.6019    2.4785 C.3       1 <0>        -0.0683
      9 H2         -0.4385    0.7473    3.0840 H         1 <0>         0.0639
     10 C8          1.4483    1.4831    2.4306 C.3       1 <0>        -0.1101
     11 C9          1.8935    1.0649    3.8386 C.3       1 <0>        -0.0830
     12 C10         1.2024    1.8703    4.9078 C.ar      1 <0>        -0.0595
     13 C11         1.6869    1.7532    6.2055 C.ar      1 <0>        -0.1484
     14 C12         1.1063    2.4615    7.2430 C.ar      1 <0>         0.1008
     15 C13         0.0265    3.2951    6.9893 C.ar      1 <0>        -0.1469
     16 C14        -0.4579    3.4094    5.7026 C.ar      1 <0>        -0.1024
     17 C15         0.1279    2.7056    4.6654 C.ar      1 <0>        -0.0775
     18 C16        -0.4003    2.8735    3.2676 C.3       1 <0>        -0.0452
     19 H3          0.1551    3.7090    2.8468 H         1 <0>         0.0858
     20 C17        -1.8849    3.1670    3.1829 C.3       1 <0>        -0.1059
     21 C18        -2.2827    3.5349    1.7432 C.3       1 <0>        -0.1030
     22 O1          1.5932    2.3415    8.5069 O.3       1 <0>        -0.5007
     23 H4         -0.5774    4.7600   -0.1818 H         1 <0>         0.0535
     24 H5          0.2178    4.3405    1.3544 H         1 <0>         0.0569
     25 H6          0.6003    3.4265   -0.1242 H         1 <0>         0.0600
     26 H7         -2.1399    3.4541   -1.2122 H         1 <0>         0.0655
     27 H8         -2.8836    2.0110   -0.4363 H         1 <0>         0.0654
     28 H9         -0.2416    2.2405   -1.9140 H         1 <0>         0.0638
     29 H10        -1.3462    0.8430   -1.7963 H         1 <0>         0.0604
     30 H11        -0.0366    0.0068   -0.1024 H         1 <0>         0.0619
     31 H12         0.9682    1.4872   -0.0882 H         1 <0>         0.0696
     32 H13         1.7439    0.7191    1.7145 H         1 <0>         0.0737
     33 H14         1.8949    2.4404    2.1753 H         1 <0>         0.0676
     34 H15         1.6575    0.0108    3.9812 H         1 <0>         0.0768
     35 H16         2.9696    1.2054    3.9235 H         1 <0>         0.0756
     36 H17         2.5252    1.1030    6.4056 H         1 <0>         0.1254
     37 H18        -0.4304    3.8530    7.7925 H         1 <0>         0.1276
     38 H19        -1.2998    4.0588    5.5122 H         1 <0>         0.1274
     39 H20        -2.4526    2.2882    3.5050 H         1 <0>         0.0626
     40 H21        -2.1356    4.0003    3.8480 H         1 <0>         0.0644
     41 H22        -2.3143    4.6271    1.6405 H         1 <0>         0.0624
     42 H23        -3.2933    3.1543    1.5384 H         1 <0>         0.0625
     43 H24         2.2873    2.9791    8.7231 H         1 <0>         0.3898
@<TRIPOS>BOND
     1    1    2 1
     2    1   23 1
     3    1   24 1
     4    1   25 1
     5    2    6 1
     6    2   21 1
     7    2    3 1
     8    3    4 1
     9    3   26 1
    10    3   27 1
    11    4    5 1
    12    4   28 1
    13    4   29 1
    14    5    6 1
    15    5   30 1
    16    5   31 1
    17    6    7 1
    18    6    8 1
    19    8    9 1
    20    8   18 1
    21    8   10 1
    22   10   11 1
    23   10   32 1
    24   10   33 1
    25   11   12 1
    26   11   34 1
    27   11   35 1
    28   12   17 ar
    29   12   13 ar
    30   13   14 ar
    31   13   36 1
    32   14   15 ar
    33   14   22 1
    34   15   16 ar
    35   15   37 1
    36   16   17 ar
    37   16   38 1
    38   17   18 1
    39   18   19 1
    40   18   20 1
    41   20   21 1
    42   20   39 1
    43   20   40 1
    44   21   41 1
    45   21   42 1
    46   22   43 1
@<TRIPOS>MOLECULE
ZINC03815428
   33    34     0     0     0
SMALL
USER_CHARGES

@<TRIPOS>ATOM
      1 C1         -2.8322   -3.1637   -4.7999 C.3       1 <0>         0.0257
      2 O1         -3.1261   -1.8579   -4.2994 O.3       1 <0>        -0.3156
      3 C2         -2.3717   -1.4108   -3.2612 C.ar      1 <0>         0.1429
      4 C3         -2.6029   -0.1520   -2.7257 C.ar      1 <0>        -0.1537
      5 C4         -1.8343    0.3003   -1.6707 C.ar      1 <0>        -0.0463
      6 C5         -0.8351   -0.5002   -1.1486 C.ar      1 <0>        -0.1394
      7 C6         -0.5990   -1.7529   -1.6841 C.ar      1 <0>        -0.0511
      8 C7         -1.3688   -2.2123   -2.7352 C.ar      1 <0>        -0.2112
      9 C8          0.0021   -0.0041    0.0020 C.3       1 <0>         0.0081
     10 H1          0.8964   -0.6205    0.0929 H         1 <0>         0.1254
     11 C9          0.4018    1.4273   -0.2481 C.ar      1 <0>        -0.0987
     12 C10         1.3624    1.7196   -1.1986 C.ar      1 <0>        -0.0789
     13 C11         1.7264    3.0313   -1.4337 C.ar      1 <0>        -0.1435
     14 C12         1.1358    4.0548   -0.7069 C.ar      1 <0>         0.1126
     15 C13         0.1763    3.7584    0.2503 C.ar      1 <0>        -0.1393
     16 C14        -0.1887    2.4455    0.4774 C.ar      1 <0>        -0.1099
     17 O2          1.4969    5.3455   -0.9318 O.3       1 <0>        -0.4995
     18 C15        -0.8091   -0.0883    1.2965 C.3       1 <0>         0.1449
     19 Cl1        -2.3815    0.7663    1.0771 Cl        1 <0>        -0.0771
     20 Cl2        -1.1166   -1.8181    1.7016 Cl        1 <0>        -0.0804
     21 Cl3         0.1148    0.6876    2.6363 Cl        1 <0>        -0.0809
     22 H2         -3.5054   -3.3967   -5.6249 H         1 <0>         0.1020
     23 H3         -1.8012   -3.1941   -5.1525 H         1 <0>         0.0571
     24 H4         -2.9656   -3.8964   -4.0040 H         1 <0>         0.0572
     25 H5         -3.3828    0.4739   -3.1336 H         1 <0>         0.1332
     26 H6         -2.0139    1.2802   -1.2535 H         1 <0>         0.1331
     27 H7          0.1852   -2.3744   -1.2777 H         1 <0>         0.1277
     28 H8         -1.1867   -3.1925   -3.1506 H         1 <0>         0.1316
     29 H9          1.8256    0.9220   -1.7606 H         1 <0>         0.1290
     30 H10         2.4739    3.2594   -2.1792 H         1 <0>         0.1315
     31 H11        -0.2847    4.5534    0.8177 H         1 <0>         0.1309
     32 H12        -0.9356    2.2143    1.2224 H         1 <0>         0.1401
     33 H13         2.2341    5.6488   -0.3844 H         1 <0>         0.3926
@<TRIPOS>BOND
     1    1    2 1
     2    1   22 1
     3    1   23 1
     4    1   24 1
     5    2    3 1
     6    3    8 ar
     7    3    4 ar
     8    4    5 ar
     9    4   25 1
    10    5    6 ar
    11    5   26 1
    12    6    7 ar
    13    6    9 1
    14    7    8 ar
    15    7   27 1
    16    8   28 1
    17    9   10 1
    18    9   11 1
    19    9   18 1
    20   11   16 ar
    21   11   12 ar
    22   12   13 ar
    23   12   29 1
    24   13   14 ar
    25   13   30 1
    26   14   15 ar
    27   14   17 1
    28   15   16 ar
    29   15   31 1
    30   16   32 1
    31   17   33 1
    32   18   19 1
    33   18   20 1
    34   18   21 1
@<TRIPOS>MOLECULE
ZINC03815429
   31    32     0     0     0
SMALL
USER_CHARGES

@<TRIPOS>ATOM
      1 C1          2.4158    4.1148    0.0006 C.3       1 <0>         0.0253
      2 O1          1.1532    3.4456    0.0091 O.3       1 <0>        -0.3154
      3 C2          1.1752    2.0868    0.0020 C.ar      1 <0>         0.1400
      4 C3         -0.0166    1.3748    0.0096 C.ar      1 <0>        -0.1502
      5 C4          0.0021   -0.0041    0.0020 C.ar      1 <0>        -0.0516
      6 C5          1.2199   -0.6832   -0.0132 C.ar      1 <0>        -0.0962
      7 C6          2.4151    0.0350   -0.0208 C.ar      1 <0>        -0.0483
      8 C7          2.3893    1.4138   -0.0131 C.ar      1 <0>        -0.2083
      9 C8          1.2438   -2.1653   -0.0209 C.2       1 <0>         0.0029
     10 C9          0.7534   -2.8388   -1.0728 C.2       1 <0>        -0.0320
     11 Cl1         0.7814   -4.5745   -1.0819 Cl        1 <0>        -0.0230
     12 Cl2         0.0908   -1.9743   -2.4247 Cl        1 <0>        -0.0221
     13 C10         1.8095   -2.9034    1.1334 C.ar      1 <0>        -0.0649
     14 C11         1.1958   -2.8229    2.3829 C.ar      1 <0>        -0.0728
     15 C12         1.7219   -3.5147    3.4536 C.ar      1 <0>        -0.1445
     16 C13         2.8673   -4.2822    3.2909 C.ar      1 <0>         0.1167
     17 C14         3.4838   -4.3602    2.0495 C.ar      1 <0>        -0.1442
     18 C15         2.9598   -3.6752    0.9734 C.ar      1 <0>        -0.0760
     19 O2          3.3859   -4.9589    4.3492 O.3       1 <0>        -0.4991
     20 H1          2.9691    3.8355   -0.8960 H         1 <0>         0.0574
     21 H2          2.2556    5.1930    0.0076 H         1 <0>         0.1025
     22 H3          2.9857    3.8265    0.8839 H         1 <0>         0.0573
     23 H4         -0.9595    1.9015    0.0169 H         1 <0>         0.1358
     24 H5         -0.9254   -0.5573    0.0082 H         1 <0>         0.1319
     25 H6          3.3600   -0.4880   -0.0322 H         1 <0>         0.1275
     26 H7          3.3147    1.9706   -0.0189 H         1 <0>         0.1325
     27 H8          0.3071   -2.2228    2.5111 H         1 <0>         0.1301
     28 H9          1.2448   -3.4561    4.4207 H         1 <0>         0.1333
     29 H10         4.3749   -4.9579    1.9264 H         1 <0>         0.1331
     30 H11         3.4397   -3.7366    0.0079 H         1 <0>         0.1290
     31 H12         4.0345   -4.4544    4.8590 H         1 <0>         0.3934
@<TRIPOS>BOND
     1    1    2 1
     2    1   20 1
     3    1   21 1
     4    1   22 1
     5    2    3 1
     6    3    8 ar
     7    3    4 ar
     8    4    5 ar
     9    4   23 1
    10    5    6 ar
    11    5   24 1
    12    6    7 ar
    13    6    9 1
    14    7    8 ar
    15    7   25 1
    16    8   26 1
    17    9   10 2
    18    9   13 1
    19   10   11 1
    20   10   12 1
    21   13   18 ar
    22   13   14 ar
    23   14   15 ar
    24   14   27 1
    25   15   16 ar
    26   15   28 1
    27   16   17 ar
    28   16   19 1
    29   17   18 ar
    30   17   29 1
    31   18   30 1
    32   19   31 1
@<TRIPOS>MOLECULE
ZINC03815431
   42    45     0     0     0
SMALL
USER_CHARGES

@<TRIPOS>ATOM
      1 C1         -0.8624    3.1069    1.1837 C.3       1 <0>        -0.1546
      2 C2         -0.7391    1.5829    1.2394 C.3       1 <0>        -0.0671
      3 C3         -0.0300    1.0841   -0.0013 C.3       1 <0>        -0.1009
      4 C4         -0.8100    1.6025   -1.2252 C.3       1 <0>        -0.1143
      5 C5         -2.2615    1.1503   -1.1690 C.3       1 <0>        -0.0421
      6 H1         -2.2733    0.0606   -1.1889 H         1 <0>         0.0774
      7 C6         -3.0490    1.6402   -2.3487 C.ar      1 <0>        -0.0779
      8 C7         -2.4050    1.7366   -3.5752 C.ar      1 <0>        -0.1027
      9 C8         -3.0841    2.1705   -4.6935 C.ar      1 <0>        -0.1472
     10 C9         -4.4247    2.5135   -4.5926 C.ar      1 <0>         0.1034
     11 C10        -5.0662    2.4202   -3.3700 C.ar      1 <0>        -0.1479
     12 C11        -4.3799    1.9878   -2.2430 C.ar      1 <0>        -0.0576
     13 C12        -5.1373    1.9330   -0.9424 C.3       1 <0>        -0.0820
     14 C13        -4.3871    1.1062    0.1012 C.3       1 <0>        -0.1155
     15 C14        -2.9364    1.5860    0.1382 C.3       1 <0>        -0.0751
     16 H2         -2.9098    2.6724    0.2225 H         1 <0>         0.0877
     17 C15        -2.1587    0.9447    1.2684 C.3       1 <0>        -0.0823
     18 H3         -2.0981   -0.1342    1.1258 H         1 <0>         0.0856
     19 C16        -2.6102    1.2941    2.6896 C.3       1 <0>        -0.1647
     20 C17        -1.3493    1.0431    3.5263 C.2       1 <0>         0.3712
     21 O1         -1.3093    0.7897    4.7063 O.2       1 <0>        -0.4415
     22 C18        -0.1549    1.1741    2.5861 C.3       1 <0>        -0.1618
     23 O2         -5.1048    2.9388   -5.6896 O.3       1 <0>        -0.5004
     24 H4         -1.3434    3.3986    0.2500 H         1 <0>         0.0716
     25 H5         -1.4621    3.4538    2.0252 H         1 <0>         0.0561
     26 H6          0.1303    3.5539    1.2362 H         1 <0>         0.0589
     27 H7         -0.0158   -0.0058   -0.0063 H         1 <0>         0.0679
     28 H8          0.9902    1.4672   -0.0235 H         1 <0>         0.0702
     29 H9         -0.7736    2.6919   -1.2390 H         1 <0>         0.0716
     30 H10        -0.3493    1.2164   -2.1345 H         1 <0>         0.0682
     31 H11        -1.3615    1.4693   -3.6536 H         1 <0>         0.1278
     32 H12        -2.5754    2.2428   -5.6435 H         1 <0>         0.1277
     33 H13        -6.1099    2.6868   -3.2916 H         1 <0>         0.1263
     34 H14        -5.2725    2.9466   -0.5650 H         1 <0>         0.0780
     35 H15        -6.1153    1.4848   -1.1174 H         1 <0>         0.0762
     36 H16        -4.8457    1.2460    1.0801 H         1 <0>         0.0723
     37 H17        -4.4188    0.0517   -0.1730 H         1 <0>         0.0672
     38 H18        -2.9189    2.2449    2.7170 H         1 <0>         0.0978
     39 H19        -3.4213    0.6391    3.0079 H         1 <0>         0.0909
     40 H20         0.3371    0.3091    2.4873 H         1 <0>         0.0919
     41 H21         0.5285    1.9416    2.9493 H         1 <0>         0.0987
     42 H22        -5.5288    2.2280   -6.1896 H         1 <0>         0.3906
@<TRIPOS>BOND
     1    1    2 1
     2    1   24 1
     3    1   25 1
     4    1   26 1
     5    2   17 1
     6    2   22 1
     7    2    3 1
     8    3    4 1
     9    3   27 1
    10    3   28 1
    11    4    5 1
    12    4   29 1
    13    4   30 1
    14    5    6 1
    15    5   15 1
    16    5    7 1
    17    7   12 ar
    18    7    8 ar
    19    8    9 ar
    20    8   31 1
    21    9   10 ar
    22    9   32 1
    23   10   11 ar
    24   10   23 1
    25   11   12 ar
    26   11   33 1
    27   12   13 1
    28   13   14 1
    29   13   34 1
    30   13   35 1
    31   14   15 1
    32   14   36 1
    33   14   37 1
    34   15   16 1
    35   15   17 1
    36   17   18 1
    37   17   19 1
    38   19   20 1
    39   19   38 1
    40   19   39 1
    41   20   21 2
    42   20   22 1
    43   22   40 1
    44   22   41 1
    45   23   42 1
@<TRIPOS>MOLECULE
ZINC03815432
   45    48     0     0     0
SMALL
USER_CHARGES

@<TRIPOS>ATOM
      1 C1         -2.2275    1.1643   -1.1220 C.3       1 <0>        -0.1373
      2 C2         -0.7620    1.5958   -1.2050 C.3       1 <0>        -0.0583
      3 C3         -0.0167    1.1012    0.0168 C.3       1 <0>        -0.1023
      4 C4         -0.7602    1.6214    1.2620 C.3       1 <0>        -0.1140
      5 C5         -0.8687    3.1391    1.2268 C.3       1 <0>        -0.0447
      6 H1          0.1465    3.5357    1.2419 H         1 <0>         0.0799
      7 C6         -1.5922    3.6768    2.4269 C.ar      1 <0>        -0.0648
      8 C7         -1.4208    3.0286    3.6428 C.ar      1 <0>        -0.1034
      9 C8         -2.0417    3.4956    4.7816 C.ar      1 <0>        -0.1401
     10 C9         -2.8465    4.6237    4.7112 C.ar      1 <0>         0.1045
     11 C10        -3.0223    5.2661    3.4981 C.ar      1 <0>        -0.1435
     12 C11        -2.3993    4.7929    2.3510 C.ar      1 <0>        -0.0956
     13 C12        -2.6453    5.5373    1.0651 C.3       1 <0>         0.1481
     14 H2         -3.6464    5.3032    0.7030 H         1 <0>         0.0672
     15 C13        -1.6235    5.1510   -0.0036 C.3       1 <0>        -0.1052
     16 C14        -1.5457    3.6254   -0.0610 C.3       1 <0>        -0.0714
     17 H3         -2.5490    3.2086   -0.1485 H         1 <0>         0.0884
     18 C15        -0.6908    3.1484   -1.2170 C.3       1 <0>        -0.0817
     19 H4          0.3401    3.4860   -1.1097 H         1 <0>         0.0800
     20 C16        -1.2169    3.4688   -2.6203 C.3       1 <0>        -0.1142
     21 C17        -0.5310    2.3912   -3.5038 C.3       1 <0>        -0.1565
     22 C18        -0.1908    1.2075   -2.5639 C.3       1 <0>         0.1113
     23 H5          0.8890    1.0755   -2.4960 H         1 <0>         0.0578
     24 O1         -0.8070    0.0076   -3.0356 O.3       1 <0>        -0.5598
     25 O2         -2.5552    6.9418    1.3128 O.3       1 <0>        -0.5588
     26 O3         -3.4598    5.0954    5.8285 O.3       1 <0>        -0.4992
     27 H6         -2.6526    1.5016   -0.1766 H         1 <0>         0.0598
     28 H7         -2.7838    1.6062   -1.9487 H         1 <0>         0.0552
     29 H8         -2.2903    0.0778   -1.1815 H         1 <0>         0.0617
     30 H9         -0.0012    0.0113    0.0241 H         1 <0>         0.0696
     31 H10         1.0034    1.4851    0.0081 H         1 <0>         0.0642
     32 H11        -1.7613    1.1912    1.2885 H         1 <0>         0.0715
     33 H12        -0.2164    1.3198    2.1572 H         1 <0>         0.0675
     34 H13        -0.7953    2.1499    3.6969 H         1 <0>         0.1305
     35 H14        -1.9021    2.9862    5.7236 H         1 <0>         0.1302
     36 H15        -3.6496    6.1436    3.4432 H         1 <0>         0.1250
     37 H16        -0.6470    5.5594    0.2566 H         1 <0>         0.0755
     38 H17        -1.9385    5.5398   -0.9720 H         1 <0>         0.0784
     39 H18        -0.9127    4.4696   -2.9269 H         1 <0>         0.0679
     40 H19        -2.3014    3.3676   -2.6609 H         1 <0>         0.0717
     41 H20         0.3814    2.7935   -3.9440 H         1 <0>         0.0678
     42 H21        -1.2120    2.0619   -4.2886 H         1 <0>         0.0733
     43 H22        -0.4830   -0.2885   -3.8972 H         1 <0>         0.3755
     44 H23        -3.1749    7.2637    1.9817 H         1 <0>         0.3767
     45 H24        -2.9364    5.7425    6.3210 H         1 <0>         0.3916
@<TRIPOS>BOND
     1    1    2 1
     2    1   27 1
     3    1   28 1
     4    1   29 1
     5    2   18 1
     6    2   22 1
     7    2    3 1
     8    3    4 1
     9    3   30 1
    10    3   31 1
    11    4    5 1
    12    4   32 1
    13    4   33 1
    14    5    6 1
    15    5   16 1
    16    5    7 1
    17    7   12 ar
    18    7    8 ar
    19    8    9 ar
    20    8   34 1
    21    9   10 ar
    22    9   35 1
    23   10   11 ar
    24   10   26 1
    25   11   12 ar
    26   11   36 1
    27   12   13 1
    28   13   14 1
    29   13   15 1
    30   13   25 1
    31   15   16 1
    32   15   37 1
    33   15   38 1
    34   16   17 1
    35   16   18 1
    36   18   19 1
    37   18   20 1
    38   20   21 1
    39   20   39 1
    40   20   40 1
    41   21   22 1
    42   21   41 1
    43   21   42 1
    44   22   23 1
    45   22   24 1
    46   24   43 1
    47   25   44 1
    48   26   45 1
@<TRIPOS>MOLECULE
ZINC03815435
   47    50     0     0     0
SMALL
USER_CHARGES

@<TRIPOS>ATOM
      1 C1          3.5475    2.8330    0.8257 C.3       1 <0>        -0.1416
      2 C2          2.5426    3.7495    0.1250 C.3       1 <0>        -0.0469
      3 C3          2.3413    5.0681    0.8730 C.3       1 <0>        -0.1062
      4 C4          3.5136    6.0061    0.7118 C.3       1 <0>        -0.1127
      5 C5          3.6829    6.3172   -0.7766 C.3       1 <0>        -0.0417
      6 H1          2.7453    6.7087   -1.1713 H         1 <0>         0.0846
      7 C6          4.7702    7.3341   -0.9804 C.ar      1 <0>        -0.0768
      8 C7          4.8583    8.3893   -0.0824 C.ar      1 <0>        -0.1023
      9 C8          5.8299    9.3564   -0.2282 C.ar      1 <0>        -0.1474
     10 C9          6.7278    9.2737   -1.2829 C.ar      1 <0>         0.1021
     11 C10         6.6427    8.2193   -2.1753 C.ar      1 <0>        -0.1484
     12 C11         5.6669    7.2430   -2.0241 C.ar      1 <0>        -0.0584
     13 C12         5.6517    6.1110   -3.0173 C.3       1 <0>        -0.0818
     14 C13         4.3062    5.3501   -2.9637 C.3       1 <0>        -0.1120
     15 C14         4.0292    5.0179   -1.4972 C.3       1 <0>        -0.0725
     16 H2          4.9405    4.6125   -1.0576 H         1 <0>         0.0700
     17 C15         2.9309    3.9971   -1.3456 C.3       1 <0>        -0.0717
     18 H3          3.2417    3.0576   -1.8025 H         1 <0>         0.0727
     19 C16         1.6139    4.4697   -1.9883 C.3       1 <0>        -0.1221
     20 C17         0.5460    3.5690   -1.3260 C.3       1 <0>        -0.1148
     21 C18         1.1449    3.0852    0.0077 C.3       1 <0>        -0.0855
     22 H4          0.5115    3.3967    0.8383 H         1 <0>         0.0785
     23 C19         1.2864    1.5618   -0.0018 C.3       1 <0>         0.0786
     24 O1         -0.0110    0.9628    0.0073 O.3       1 <0>        -0.5753
     25 O2          7.6869   10.2238   -1.4386 O.3       1 <0>        -0.5005
     26 H5          3.6342    1.8981    0.2719 H         1 <0>         0.0580
     27 H6          4.5202    3.3233    0.8654 H         1 <0>         0.0592
     28 H7          3.2041    2.6245    1.8390 H         1 <0>         0.0577
     29 H8          1.4590    5.5713    0.4774 H         1 <0>         0.0637
     30 H9          2.1859    4.8577    1.9311 H         1 <0>         0.0638
     31 H10         4.4133    5.5216    1.0913 H         1 <0>         0.0653
     32 H11         3.3323    6.9291    1.2626 H         1 <0>         0.0681
     33 H12         4.1585    8.4535    0.7378 H         1 <0>         0.1275
     34 H13         5.8916   10.1742    0.4745 H         1 <0>         0.1274
     35 H14         7.3411    8.1554   -2.9966 H         1 <0>         0.1257
     36 H15         5.7870    6.5145   -4.0208 H         1 <0>         0.0746
     37 H16         6.4716    5.4285   -2.7934 H         1 <0>         0.0784
     38 H17         4.3891    4.4286   -3.5400 H         1 <0>         0.0686
     39 H18         3.4960    5.9612   -3.3614 H         1 <0>         0.0692
     40 H19         1.4285    5.5185   -1.7569 H         1 <0>         0.0686
     41 H20         1.6356    4.3138   -3.0669 H         1 <0>         0.0656
     42 H21         0.3266    2.7160   -1.9681 H         1 <0>         0.0665
     43 H22        -0.3630    4.1415   -1.1414 H         1 <0>         0.0623
     44 H23         1.8401    1.2428    0.8812 H         1 <0>         0.0489
     45 H24         1.8231    1.2523   -0.8987 H         1 <0>         0.0442
     46 H25         0.0021   -0.0041    0.0020 H         1 <0>         0.3786
     47 H26         7.4148   10.9708   -1.9891 H         1 <0>         0.3901
@<TRIPOS>BOND
     1    1    2 1
     2    1   26 1
     3    1   27 1
     4    1   28 1
     5    2   17 1
     6    2   21 1
     7    2    3 1
     8    3    4 1
     9    3   29 1
    10    3   30 1
    11    4    5 1
    12    4   31 1
    13    4   32 1
    14    5    6 1
    15    5   15 1
    16    5    7 1
    17    7   12 ar
    18    7    8 ar
    19    8    9 ar
    20    8   33 1
    21    9   10 ar
    22    9   34 1
    23   10   11 ar
    24   10   25 1
    25   11   12 ar
    26   11   35 1
    27   12   13 1
    28   13   14 1
    29   13   36 1
    30   13   37 1
    31   14   15 1
    32   14   38 1
    33   14   39 1
    34   15   16 1
    35   15   17 1
    36   17   18 1
    37   17   19 1
    38   19   20 1
    39   19   40 1
    40   19   41 1
    41   20   21 1
    42   20   42 1
    43   20   43 1
    44   21   22 1
    45   21   23 1
    46   23   24 1
    47   23   44 1
    48   23   45 1
    49   24   46 1
    50   25   47 1
@<TRIPOS>MOLECULE
ZINC03815437
   47    50     0     0     0
SMALL
USER_CHARGES

@<TRIPOS>ATOM
      1 C1         -1.0981    0.2065    1.4305 C.3       1 <0>        -0.1084
      2 C2         -0.9437   -0.7063    0.2414 C.ar      1 <0>        -0.1123
      3 C3         -0.7207   -2.0546    0.4269 C.ar      1 <0>        -0.1032
      4 C4         -0.5768   -2.9037   -0.6624 C.ar      1 <0>        -0.0725
      5 C5         -0.6626   -2.3996   -1.9413 C.ar      1 <0>        -0.0636
      6 C6         -0.8891   -1.0432   -2.1310 C.ar      1 <0>        -0.1434
      7 C7         -1.0247   -0.1945   -1.0455 C.ar      1 <0>         0.1002
      8 O1         -1.2418    1.1329   -1.2398 O.3       1 <0>        -0.4964
      9 C8         -0.5347   -3.2648   -3.1678 C.3       1 <0>        -0.0812
     10 C9          0.1137   -4.6035   -2.8182 C.3       1 <0>        -0.1184
     11 C10        -0.6273   -5.2002   -1.6194 C.3       1 <0>        -0.0686
     12 H1         -1.6973   -5.1340   -1.8163 H         1 <0>         0.0684
     13 C11        -0.3209   -4.3637   -0.3840 C.3       1 <0>        -0.0375
     14 H2         -0.9488   -4.6926    0.4440 H         1 <0>         0.0811
     15 C12         1.1570   -4.5452   -0.0187 C.3       1 <0>        -0.1136
     16 C13         1.4025   -6.0124    0.3209 C.3       1 <0>        -0.0920
     17 C14         1.1334   -6.8991   -0.8979 C.3       1 <0>        -0.0458
     18 C15        -0.2880   -6.6556   -1.4355 C.3       1 <0>        -0.0735
     19 H3         -0.4024   -7.1727   -2.3882 H         1 <0>         0.0728
     20 C16        -1.1889   -7.3475   -0.3950 C.3       1 <0>        -0.1176
     21 C17        -0.4084   -8.6334   -0.0387 C.3       1 <0>        -0.1580
     22 C18         1.0679   -8.3608   -0.3814 C.3       1 <0>         0.1025
     23 H4          1.4049   -9.0475   -1.1579 H         1 <0>         0.0556
     24 O2          1.8776   -8.5050    0.7872 O.3       1 <0>        -0.5605
     25 C19         2.2021   -6.7201   -1.9780 C.3       1 <0>        -0.1412
     26 H5         -2.1492    0.2588    1.7143 H         1 <0>         0.0710
     27 H6         -0.5153   -0.1827    2.2653 H         1 <0>         0.0651
     28 H7         -0.7415    1.2035    1.1720 H         1 <0>         0.0665
     29 H8         -0.6571   -2.4536    1.4285 H         1 <0>         0.1239
     30 H9         -0.9564   -0.6462   -3.1331 H         1 <0>         0.1258
     31 H10        -0.4329    1.6600   -1.2941 H         1 <0>         0.3875
     32 H11        -1.5253   -3.4439   -3.5858 H         1 <0>         0.0763
     33 H12         0.0796   -2.7511   -3.9073 H         1 <0>         0.0749
     34 H13         0.0401   -5.2804   -3.6693 H         1 <0>         0.0689
     35 H14         1.1616   -4.4479   -2.5617 H         1 <0>         0.0753
     36 H15         1.7807   -4.2567   -0.8648 H         1 <0>         0.0669
     37 H16         1.3995   -3.9231    0.8429 H         1 <0>         0.0625
     38 H17         2.4380   -6.1400    0.6366 H         1 <0>         0.0674
     39 H18         0.7398   -6.3090    1.1339 H         1 <0>         0.0651
     40 H19        -2.1574   -7.5946   -0.8298 H         1 <0>         0.0667
     41 H20        -1.3122   -6.7171    0.4856 H         1 <0>         0.0702
     42 H21        -0.7801   -9.4713   -0.6285 H         1 <0>         0.0667
     43 H22        -0.5110   -8.8508    1.0244 H         1 <0>         0.0725
     44 H23         1.8778   -9.3981    1.1578 H         1 <0>         0.3748
     45 H24         3.1552   -7.1029   -1.6131 H         1 <0>         0.0577
     46 H25         1.9091   -7.2683   -2.8734 H         1 <0>         0.0549
     47 H26         2.3033   -5.6614   -2.2170 H         1 <0>         0.0663
@<TRIPOS>BOND
     1    1    2 1
     2    1   26 1
     3    1   27 1
     4    1   28 1
     5    2    7 ar
     6    2    3 ar
     7    3    4 ar
     8    3   29 1
     9    4   13 1
    10    4    5 ar
    11    5    6 ar
    12    5    9 1
    13    6    7 ar
    14    6   30 1
    15    7    8 1
    16    8   31 1
    17    9   10 1
    18    9   32 1
    19    9   33 1
    20   10   11 1
    21   10   34 1
    22   10   35 1
    23   11   12 1
    24   11   18 1
    25   11   13 1
    26   13   14 1
    27   13   15 1
    28   15   16 1
    29   15   36 1
    30   15   37 1
    31   16   17 1
    32   16   38 1
    33   16   39 1
    34   17   22 1
    35   17   18 1
    36   17   25 1
    37   18   19 1
    38   18   20 1
    39   20   21 1
    40   20   40 1
    41   20   41 1
    42   21   22 1
    43   21   42 1
    44   21   43 1
    45   22   23 1
    46   22   24 1
    47   24   44 1
    48   25   45 1
    49   25   46 1
    50   25   47 1
@<TRIPOS>MOLECULE
ZINC03815438
   47    50     0     0     0
SMALL
USER_CHARGES

@<TRIPOS>ATOM
      1 C1         -0.0986   -1.1238   -1.7190 C.3       1 <0>        -0.1565
      2 C2         -0.5024    0.2946   -2.1263 C.3       1 <0>        -0.0907
      3 H1          0.3334    0.7852   -2.6252 H         1 <0>         0.0827
      4 C3         -1.7027    0.2370   -3.0697 C.3       1 <0>        -0.0788
      5 C4         -2.2703    1.6143   -3.2938 C.ar      1 <0>        -0.0552
      6 C5         -3.1147    1.7938   -4.3814 C.ar      1 <0>        -0.1480
      7 C6         -3.6824    3.0307   -4.6338 C.ar      1 <0>         0.1030
      8 C7         -3.4039    4.0990   -3.7932 C.ar      1 <0>        -0.1481
      9 C8         -2.5619    3.9192   -2.7166 C.ar      1 <0>        -0.0999
     10 C9         -1.9908    2.6781   -2.4654 C.ar      1 <0>        -0.0779
     11 C10        -1.0744    2.5564   -1.2737 C.3       1 <0>        -0.0366
     12 H2         -1.4900    3.1154   -0.4353 H         1 <0>         0.0808
     13 C11        -0.9141    1.1202   -0.8693 C.3       1 <0>        -0.0660
     14 H3         -1.8816    0.7540   -0.5259 H         1 <0>         0.0683
     15 C12         0.0882    0.9016    0.2327 C.3       1 <0>        -0.0765
     16 H4          0.2631   -0.1679    0.3498 H         1 <0>         0.0855
     17 C13        -0.3928    1.4827    1.5756 C.3       1 <0>        -0.1195
     18 C14         0.9029    1.5773    2.4135 C.3       1 <0>        -0.1579
     19 C15         2.0713    1.6319    1.4117 C.3       1 <0>         0.1027
     20 H5          2.6409    2.5509    1.5507 H         1 <0>         0.0555
     21 C16         1.4347    1.6086   -0.0030 C.3       1 <0>        -0.0430
     22 C17         1.2072    3.0635   -0.4222 C.3       1 <0>        -0.1092
     23 C18         0.2971    3.1327   -1.6451 C.3       1 <0>        -0.1090
     24 C19         2.3054    0.8561   -1.0112 C.3       1 <0>        -0.1310
     25 O1          2.9219    0.4969    1.5858 O.3       1 <0>        -0.5611
     26 O2         -4.5088    3.1979   -5.6996 O.3       1 <0>        -0.5004
     27 H6          0.1676   -1.6953   -2.6082 H         1 <0>         0.0544
     28 H7          0.7577   -1.0788   -1.0462 H         1 <0>         0.0703
     29 H8         -0.9336   -1.6080   -1.2125 H         1 <0>         0.0539
     30 H9         -2.4713   -0.4016   -2.6344 H         1 <0>         0.0777
     31 H10        -1.3882   -0.1816   -4.0258 H         1 <0>         0.0750
     32 H11        -3.3306    0.9617   -5.0352 H         1 <0>         0.1260
     33 H12        -3.8451    5.0667   -3.9813 H         1 <0>         0.1272
     34 H13        -2.3441    4.7508   -2.0629 H         1 <0>         0.1246
     35 H14        -0.8296    2.4709    1.4316 H         1 <0>         0.0678
     36 H15        -1.1083    0.8112    2.0500 H         1 <0>         0.0664
     37 H16         0.9995    0.6994    3.0522 H         1 <0>         0.0727
     38 H17         0.8895    2.4821    3.0211 H         1 <0>         0.0663
     39 H18         0.7444    3.6068    0.4016 H         1 <0>         0.0647
     40 H19         2.1663    3.5228   -0.6613 H         1 <0>         0.0640
     41 H20         0.1846    4.1706   -1.9585 H         1 <0>         0.0646
     42 H21         0.7322    2.5509   -2.4577 H         1 <0>         0.0699
     43 H22         1.8433    0.9037   -1.9972 H         1 <0>         0.0603
     44 H23         3.2938    1.3140   -1.0507 H         1 <0>         0.0512
     45 H24         2.3996   -0.1854   -0.7039 H         1 <0>         0.0650
     46 H25         3.3497    0.4552    2.4520 H         1 <0>         0.3748
     47 H26        -4.0550    3.4620   -6.5116 H         1 <0>         0.3901
@<TRIPOS>BOND
     1    1    2 1
     2    1   27 1
     3    1   28 1
     4    1   29 1
     5    2    3 1
     6    2   13 1
     7    2    4 1
     8    4    5 1
     9    4   30 1
    10    4   31 1
    11    5   10 ar
    12    5    6 ar
    13    6    7 ar
    14    6   32 1
    15    7    8 ar
    16    7   26 1
    17    8    9 ar
    18    8   33 1
    19    9   10 ar
    20    9   34 1
    21   10   11 1
    22   11   12 1
    23   11   23 1
    24   11   13 1
    25   13   14 1
    26   13   15 1
    27   15   16 1
    28   15   21 1
    29   15   17 1
    30   17   18 1
    31   17   35 1
    32   17   36 1
    33   18   19 1
    34   18   37 1
    35   18   38 1
    36   19   20 1
    37   19   21 1
    38   19   25 1
    39   21   22 1
    40   21   24 1
    41   22   23 1
    42   22   39 1
    43   22   40 1
    44   23   41 1
    45   23   42 1
    46   24   43 1
    47   24   44 1
    48   24   45 1
    49   25   46 1
    50   26   47 1
@<TRIPOS>MOLECULE
ZINC03815439
   47    50     0     0     0
SMALL
USER_CHARGES

@<TRIPOS>ATOM
      1 C1          3.8634    2.7831    1.5599 C.3       1 <0>        -0.1455
      2 C2          3.9807    1.8634    0.3333 C.3       1 <0>        -0.0048
      3 C3          3.7471    2.6934   -0.9239 C.3       1 <0>        -0.1014
      4 C4          4.8560    3.7202   -1.1727 C.3       1 <0>        -0.1005
      5 C5          6.1829    3.0031   -1.2625 C.3       1 <0>        -0.0489
      6 C6          6.4261    2.2186    0.0420 C.3       1 <0>        -0.0783
      7 H1          6.4587    2.9540    0.8773 H         1 <0>         0.0687
      8 C7          5.3663    1.2144    0.3509 C.3       1 <0>        -0.0557
      9 H2          5.5372    0.8643    1.3939 H         1 <0>         0.0658
     10 C8          5.3755   -0.0276   -0.5314 C.3       1 <0>        -0.1142
     11 C9          4.5259   -1.0938    0.1754 C.3       1 <0>        -0.0859
     12 C10         3.1426   -0.5359    0.4017 C.ar      1 <0>        -0.0581
     13 C11         2.8953    0.8185    0.4413 C.ar      1 <0>        -0.0713
     14 C12         1.5886    1.2678    0.5943 C.ar      1 <0>        -0.0994
     15 C13         0.5484    0.3741    0.7429 C.ar      1 <0>        -0.1493
     16 C14         0.8031   -0.9888    0.7293 C.ar      1 <0>         0.1028
     17 C15         2.1009   -1.4387    0.5519 C.ar      1 <0>        -0.1472
     18 O1         -0.2126   -1.8767    0.8905 O.3       1 <0>        -0.5000
     19 C16         7.8698    1.7369   -0.1533 C.3       1 <0>        -0.1131
     20 C17         8.5608    3.0050   -0.7336 C.3       1 <0>        -0.1581
     21 C18         7.4265    3.9127   -1.2767 C.3       1 <0>         0.1031
     22 H3          7.2677    4.7641   -0.6232 H         1 <0>         0.0580
     23 O2          7.7096    4.3277   -2.6102 O.3       1 <0>        -0.5570
     24 C19         6.2385    2.1261   -2.5112 C.3       1 <0>        -0.1329
     25 H4          3.9911    2.1949    2.4686 H         1 <0>         0.0557
     26 H5          4.6351    3.5514    1.5130 H         1 <0>         0.0613
     27 H6          2.8809    3.2550    1.5676 H         1 <0>         0.0579
     28 H7          3.6531    2.0295   -1.7818 H         1 <0>         0.0652
     29 H8          2.7974    3.2292   -0.8128 H         1 <0>         0.0606
     30 H9          4.8799    4.4602   -0.3711 H         1 <0>         0.0630
     31 H10         4.6595    4.2424   -2.1176 H         1 <0>         0.0660
     32 H11         4.9155    0.1786   -1.4971 H         1 <0>         0.0732
     33 H12         6.3877   -0.4005   -0.6606 H         1 <0>         0.0730
     34 H13         4.9810   -1.3418    1.1296 H         1 <0>         0.0781
     35 H14         4.4630   -1.9761   -0.4549 H         1 <0>         0.0764
     36 H15         1.3735    2.3261    0.5850 H         1 <0>         0.1249
     37 H16        -0.4610    0.7361    0.8740 H         1 <0>         0.1268
     38 H17         2.3010   -2.4997    0.5326 H         1 <0>         0.1264
     39 H18        -0.6326   -2.1485    0.0630 H         1 <0>         0.3900
     40 H19         8.3141    1.4718    0.8083 H         1 <0>         0.0640
     41 H20         7.9309    0.9034   -0.8433 H         1 <0>         0.0740
     42 H21         9.1042    3.5237    0.0564 H         1 <0>         0.0652
     43 H22         9.2391    2.7283   -1.5378 H         1 <0>         0.0737
     44 H23         8.5189    4.8499   -2.6962 H         1 <0>         0.3745
     45 H24         5.3979    1.4322   -2.5055 H         1 <0>         0.0565
     46 H25         6.1844    2.7551   -3.3997 H         1 <0>         0.0624
     47 H26         7.1728    1.5648   -2.5196 H         1 <0>         0.0546
@<TRIPOS>BOND
     1    1    2 1
     2    1   25 1
     3    1   26 1
     4    1   27 1
     5    2    8 1
     6    2   13 1
     7    2    3 1
     8    3    4 1
     9    3   28 1
    10    3   29 1
    11    4    5 1
    12    4   30 1
    13    4   31 1
    14    5   21 1
    15    5    6 1
    16    5   24 1
    17    6    7 1
    18    6    8 1
    19    6   19 1
    20    8    9 1
    21    8   10 1
    22   10   11 1
    23   10   32 1
    24   10   33 1
    25   11   12 1
    26   11   34 1
    27   11   35 1
    28   12   17 ar
    29   12   13 ar
    30   13   14 ar
    31   14   15 ar
    32   14   36 1
    33   15   16 ar
    34   15   37 1
    35   16   17 ar
    36   16   18 1
    37   17   38 1
    38   18   39 1
    39   19   20 1
    40   19   40 1
    41   19   41 1
    42   20   21 1
    43   20   42 1
    44   20   43 1
    45   21   22 1
    46   21   23 1
    47   23   44 1
    48   24   45 1
    49   24   46 1
    50   24   47 1
@<TRIPOS>MOLECULE
ZINC03815440
   49    52     0     0     0
SMALL
USER_CHARGES

@<TRIPOS>ATOM
      1 C1          2.3577    0.3850   -3.4789 C.3       1 <0>        -0.1568
      2 C2          1.6999    1.3104   -2.4533 C.3       1 <0>        -0.0624
      3 H1          0.6211    1.1558   -2.4704 H         1 <0>         0.0730
      4 C3          1.9968    2.7681   -2.8064 C.3       1 <0>        -0.1102
      5 C4          1.2780    3.6857   -1.8101 C.3       1 <0>        -0.0381
      6 H2          0.2064    3.4873   -1.8312 H         1 <0>         0.0826
      7 C5          1.5338    5.1200   -2.2000 C.ar      1 <0>        -0.0770
      8 C6          0.7897    5.6466   -3.2482 C.ar      1 <0>        -0.0998
      9 C7          0.9790    6.9491   -3.6579 C.ar      1 <0>        -0.1474
     10 C8          1.9218    7.7407   -3.0176 C.ar      1 <0>         0.1022
     11 C9          2.6613    7.2159   -1.9719 C.ar      1 <0>        -0.1479
     12 C10         2.4664    5.9044   -1.5591 C.ar      1 <0>        -0.0570
     13 C11         3.2953    5.4048   -0.4046 C.3       1 <0>        -0.0821
     14 C12         3.2761    3.8782   -0.3473 C.3       1 <0>        -0.1200
     15 C13         1.8199    3.4119   -0.4132 C.3       1 <0>        -0.0687
     16 H3          1.2506    4.0138    0.2951 H         1 <0>         0.0700
     17 C14         1.6895    1.9667   -0.0116 C.3       1 <0>        -0.0739
     18 H4          2.2208    1.8193    0.9286 H         1 <0>         0.0742
     19 C15         2.2354    0.9792   -1.0579 C.3       1 <0>        -0.0244
     20 C16         1.5906   -0.3685   -0.6393 C.3       1 <0>         0.2396
     21 C17         0.2972   -0.0135    0.1175 C.3       1 <0>        -0.1455
     22 C18         0.2231    1.5298    0.1652 C.3       1 <0>        -0.1168
     23 C19         2.5039   -1.1134    0.2426 C.1       1 <0>        -0.2055
     24 C20         3.2324   -1.7076    0.9459 C.1       1 <0>        -0.1859
     25 O1          1.2834   -1.1473   -1.7973 O.3       1 <0>        -0.5287
     26 C21         3.7639    0.9137   -1.0370 C.3       1 <0>        -0.1405
     27 O2          2.1186    9.0251   -3.4158 O.3       1 <0>        -0.5003
     28 H5          1.9713   -0.6268   -3.3558 H         1 <0>         0.0924
     29 H6          2.1333    0.7396   -4.4849 H         1 <0>         0.0431
     30 H7          3.4370    0.3828   -3.3268 H         1 <0>         0.0493
     31 H8          1.6439    2.9774   -3.8162 H         1 <0>         0.0645
     32 H9          3.0717    2.9405   -2.7520 H         1 <0>         0.0673
     33 H10         0.0561    5.0301   -3.7464 H         1 <0>         0.1251
     34 H11         0.3961    7.3517   -4.4730 H         1 <0>         0.1272
     35 H12         3.3955    7.8311   -1.4731 H         1 <0>         0.1258
     36 H13         4.3231    5.7467   -0.5261 H         1 <0>         0.0758
     37 H14         2.8923    5.8042    0.5261 H         1 <0>         0.0770
     38 H15         3.7282    3.5400    0.5850 H         1 <0>         0.0690
     39 H16         3.8304    3.4719   -1.1934 H         1 <0>         0.0757
     40 H17         0.3340   -0.4170    1.1294 H         1 <0>         0.0718
     41 H18        -0.5673   -0.4127   -0.4129 H         1 <0>         0.0805
     42 H19        -0.3915    1.9098   -0.6508 H         1 <0>         0.0743
     43 H20        -0.1640    1.8658    1.1271 H         1 <0>         0.0706
     44 H21         3.8839   -2.2389    1.5749 H         1 <0>         0.2169
     45 H22         0.8552   -1.9918   -1.6011 H         1 <0>         0.3687
     46 H23         4.0988    0.0552   -1.6191 H         1 <0>         0.0614
     47 H24         4.1726    1.8272   -1.4688 H         1 <0>         0.0661
     48 H25         4.1092    0.8120   -0.0081 H         1 <0>         0.0552
     49 H26         1.5593    9.6684   -2.9593 H         1 <0>         0.3899
@<TRIPOS>BOND
     1    1    2 1
     2    1   28 1
     3    1   29 1
     4    1   30 1
     5    2    3 1
     6    2   19 1
     7    2    4 1
     8    4    5 1
     9    4   31 1
    10    4   32 1
    11    5    6 1
    12    5   15 1
    13    5    7 1
    14    7   12 ar
    15    7    8 ar
    16    8    9 ar
    17    8   33 1
    18    9   10 ar
    19    9   34 1
    20   10   11 ar
    21   10   27 1
    22   11   12 ar
    23   11   35 1
    24   12   13 1
    25   13   14 1
    26   13   36 1
    27   13   37 1
    28   14   15 1
    29   14   38 1
    30   14   39 1
    31   15   16 1
    32   15   17 1
    33   17   18 1
    34   17   22 1
    35   17   19 1
    36   19   20 1
    37   19   26 1
    38   20   21 1
    39   20   23 1
    40   20   25 1
    41   21   22 1
    42   21   40 1
    43   21   41 1
    44   22   42 1
    45   22   43 1
    46   23   24 3
    47   24   44 1
    48   25   45 1
    49   26   46 1
    50   26   47 1
    51   26   48 1
    52   27   49 1
@<TRIPOS>MOLECULE
ZINC03815441
   48    52     0     0     0
SMALL
USER_CHARGES

@<TRIPOS>ATOM
      1 C1          2.1660    1.7688    4.2298 C.3       1 <0>        -0.1572
      2 C2          3.3630    1.7403    3.2772 C.3       1 <0>        -0.0437
      3 C3          3.6177    0.3308    2.7449 C.3       1 <0>        -0.0920
      4 C4          2.3374   -0.2195    2.1170 C.3       1 <0>        -0.1192
      5 C5          1.4618    0.9033    1.5685 C.3       1 <0>        -0.0437
      6 H1          0.8616    1.3115    2.3817 H         1 <0>         0.0930
      7 C6          0.5406    0.3622    0.5080 C.ar      1 <0>        -0.0845
      8 C7          0.3873   -0.9851    0.2757 C.ar      1 <0>        -0.0984
      9 C8         -0.4769   -1.4123   -0.7175 C.ar      1 <0>        -0.1477
     10 C9         -1.1824   -0.4869   -1.4733 C.ar      1 <0>         0.1005
     11 C10        -1.0241    0.8734   -1.2347 C.ar      1 <0>        -0.1384
     12 C11        -0.1649    1.2896   -0.2465 C.ar      1 <0>        -0.0672
     13 C12         0.0620    2.7438    0.0741 C.3       1 <0>        -0.0769
     14 C13         1.5570    3.0228    0.1561 C.3       1 <0>        -0.1194
     15 C14         2.3238    2.0155    0.9864 C.3       1 <0>        -0.0493
     16 H2          3.0225    1.5355    0.3011 H         1 <0>         0.0647
     17 C15         3.1386    2.6671    2.0536 C.3       1 <0>        -0.0534
     18 C16         2.6760    4.0267    2.5952 C.3       1 <0>        -0.1257
     19 C17         3.9532    4.5932    3.2739 C.3       1 <0>        -0.1196
     20 C18         5.0500    3.5108    3.0221 C.3       1 <0>        -0.1365
     21 H3          6.0819    3.8528    3.1006 H         1 <0>         0.0975
     22 C19         4.6041    2.9643    1.6147 C.3       1 <0>        -0.1176
     23 C20         4.6445    2.3079    3.9319 C.3       1 <0>         0.1111
     24 H4          4.4341    2.6511    4.9448 H         1 <0>         0.0572
     25 O1          5.6777    1.3208    3.9432 O.3       1 <0>        -0.5588
     26 O2         -2.0288   -0.9109   -2.4483 O.3       1 <0>        -0.5005
     27 H5          2.4279    1.2603    5.1576 H         1 <0>         0.0559
     28 H6          1.8979    2.8031    4.4455 H         1 <0>         0.0646
     29 H7          1.3196    1.2634    3.7649 H         1 <0>         0.0752
     30 H8          3.9268   -0.3166    3.5655 H         1 <0>         0.0673
     31 H9          4.4057    0.3643    1.9925 H         1 <0>         0.0670
     32 H10         1.7782   -0.7716    2.8723 H         1 <0>         0.0629
     33 H11         2.6009   -0.8961    1.3040 H         1 <0>         0.0656
     34 H12         0.9374   -1.7044    0.8641 H         1 <0>         0.1301
     35 H13        -0.6022   -2.4685   -0.9049 H         1 <0>         0.1266
     36 H14        -1.5712    1.5966   -1.8212 H         1 <0>         0.1274
     37 H15        -0.3799    3.3610   -0.7080 H         1 <0>         0.0729
     38 H16        -0.4044    2.9815    1.0302 H         1 <0>         0.0774
     39 H17         1.9663    3.0242   -0.8542 H         1 <0>         0.0605
     40 H18         1.7028    4.0127    0.5883 H         1 <0>         0.0794
     41 H19         2.3532    4.6754    1.7809 H         1 <0>         0.0750
     42 H20         1.8751    3.8983    3.3234 H         1 <0>         0.0772
     43 H21         4.2401    5.5387    2.8137 H         1 <0>         0.0661
     44 H22         3.7882    4.7251    4.3433 H         1 <0>         0.0639
     45 H23         5.1428    2.0596    1.3329 H         1 <0>         0.0764
     46 H24         4.6565    3.7284    0.8390 H         1 <0>         0.0695
     47 H25         6.5052    1.6221    4.3427 H         1 <0>         0.3748
     48 H26        -1.6125   -1.0080   -3.3157 H         1 <0>         0.3896
@<TRIPOS>BOND
     1    1    2 1
     2    1   27 1
     3    1   28 1
     4    1   29 1
     5    2   17 1
     6    2   23 1
     7    2    3 1
     8    3    4 1
     9    3   30 1
    10    3   31 1
    11    4    5 1
    12    4   32 1
    13    4   33 1
    14    5    6 1
    15    5   15 1
    16    5    7 1
    17    7   12 ar
    18    7    8 ar
    19    8    9 ar
    20    8   34 1
    21    9   10 ar
    22    9   35 1
    23   10   11 ar
    24   10   26 1
    25   11   12 ar
    26   11   36 1
    27   12   13 1
    28   13   14 1
    29   13   37 1
    30   13   38 1
    31   14   15 1
    32   14   39 1
    33   14   40 1
    34   15   16 1
    35   15   17 1
    36   17   22 1
    37   17   18 1
    38   18   19 1
    39   18   41 1
    40   18   42 1
    41   19   20 1
    42   19   43 1
    43   19   44 1
    44   20   21 1
    45   20   22 1
    46   20   23 1
    47   22   45 1
    48   22   46 1
    49   23   24 1
    50   23   25 1
    51   25   47 1
    52   26   48 1
@<TRIPOS>MOLECULE
ZINC03815442
   47    50     0     0     0
SMALL
USER_CHARGES

@<TRIPOS>ATOM
      1 C1         -0.9914    3.5033   -0.8967 C.3       1 <0>        -0.1522
      2 C2         -0.8265    1.9782   -1.1535 C.3       1 <0>        -0.0298
      3 C3         -2.2438    1.4048   -1.1188 C.3       1 <0>        -0.0999
      4 C4         -2.3369    0.0332   -1.7699 C.3       1 <0>        -0.1055
      5 C5         -1.8772    0.1318   -3.2265 C.3       1 <0>        -0.0386
      6 H1         -2.4740    0.8879   -3.7412 H         1 <0>         0.0742
      7 C6         -2.0805   -1.2027   -3.8975 C.ar      1 <0>        -0.0740
      8 C7         -3.3825   -1.5738   -4.2132 C.ar      1 <0>        -0.1022
      9 C8         -3.6409   -2.7854   -4.8175 C.ar      1 <0>        -0.1485
     10 C9         -2.5921   -3.6443   -5.1118 C.ar      1 <0>         0.1005
     11 C10        -1.2957   -3.2729   -4.8022 C.ar      1 <0>        -0.1483
     12 C11        -1.0380   -2.0497   -4.1987 C.ar      1 <0>        -0.0548
     13 C12         0.3971   -1.7082   -3.8938 C.3       1 <0>        -0.0881
     14 C13         0.4633   -0.6234   -2.8124 C.3       1 <0>        -0.1147
     15 C14        -0.4113    0.5424   -3.2571 C.3       1 <0>        -0.0610
     16 H2         -0.1625    0.7386   -4.3203 H         1 <0>         0.0558
     17 C15        -0.1609    1.8255   -2.5005 C.3       1 <0>        -0.0532
     18 H3         -0.6410    2.6228   -3.1450 H         1 <0>         0.0515
     19 C16         1.3168    2.1963   -2.4936 C.3       1 <0>        -0.1079
     20 C17         2.0844    1.6035   -1.3244 C.3       1 <0>        -0.1164
     21 C18         1.4090    1.9613   -0.0009 C.3       1 <0>        -0.1521
     22 C19        -0.0172    1.4203    0.0099 C.3       1 <0>         0.1250
     23 H4         -0.4971    1.7447    0.9487 H         1 <0>         0.0419
     24 O1          0.0021   -0.0041    0.0020 O.3       1 <0>        -0.5517
     25 O2         -2.8383   -4.8446   -5.7010 O.3       1 <0>        -0.5009
     26 H5         -0.0085    3.9721   -0.8493 H         1 <0>         0.0587
     27 H6         -1.5675    3.9482   -1.7080 H         1 <0>         0.0601
     28 H7         -1.5138    3.6583    0.0474 H         1 <0>         0.0559
     29 H8         -2.9189    2.0960   -1.6346 H         1 <0>         0.0563
     30 H9         -2.5721    1.3320   -0.0763 H         1 <0>         0.0601
     31 H10        -3.3785   -0.3057   -1.7521 H         1 <0>         0.0526
     32 H11        -1.7288   -0.6910   -1.2382 H         1 <0>         0.0865
     33 H12        -4.1974   -0.9032   -3.9828 H         1 <0>         0.1236
     34 H13        -4.6563   -3.0639   -5.0597 H         1 <0>         0.1264
     35 H14        -0.4786   -3.9427   -5.0308 H         1 <0>         0.1252
     36 H15         0.8822   -1.3409   -4.7961 H         1 <0>         0.0725
     37 H16         0.9135   -2.5972   -3.5355 H         1 <0>         0.0728
     38 H17         1.4991   -0.3029   -2.7150 H         1 <0>         0.0702
     39 H18         0.1018   -1.0428   -1.8775 H         1 <0>         0.0918
     40 H19         1.4160    3.2897   -2.4737 H         1 <0>         0.0571
     41 H20         1.7709    1.8505   -3.4327 H         1 <0>         0.0609
     42 H21         3.1031    2.0156   -1.3203 H         1 <0>         0.0533
     43 H22         2.1635    0.5223   -1.4111 H         1 <0>         0.0752
     44 H23         1.4198    3.0374    0.1432 H         1 <0>         0.0712
     45 H24         1.9710    1.4938    0.8169 H         1 <0>         0.0601
     46 H25         0.4564   -0.3954    0.7607 H         1 <0>         0.3714
     47 H26        -2.9926   -5.5656   -5.0753 H         1 <0>         0.3894
@<TRIPOS>BOND
     1    1    2 1
     2    1   26 1
     3    1   27 1
     4    1   28 1
     5    2   17 1
     6    2   22 1
     7    2    3 1
     8    3    4 1
     9    3   29 1
    10    3   30 1
    11    4    5 1
    12    4   31 1
    13    4   32 1
    14    5    6 1
    15    5   15 1
    16    5    7 1
    17    7   12 ar
    18    7    8 ar
    19    8    9 ar
    20    8   33 1
    21    9   10 ar
    22    9   34 1
    23   10   11 ar
    24   10   25 1
    25   11   12 ar
    26   11   35 1
    27   12   13 1
    28   13   14 1
    29   13   36 1
    30   13   37 1
    31   14   15 1
    32   14   38 1
    33   14   39 1
    34   15   16 1
    35   15   17 1
    36   17   18 1
    37   17   19 1
    38   19   20 1
    39   19   40 1
    40   19   41 1
    41   20   21 1
    42   20   42 1
    43   20   43 1
    44   21   22 1
    45   21   44 1
    46   21   45 1
    47   22   23 1
    48   22   24 1
    49   24   46 1
    50   25   47 1
@<TRIPOS>MOLECULE
ZINC03815443
   47    50     0     0     0
SMALL
USER_CHARGES

@<TRIPOS>ATOM
      1 C1         -0.3271   -1.7237   -2.8583 C.3       1 <0>        -0.1490
      2 C2         -0.4225   -2.4941   -1.5399 C.3       1 <0>        -0.0517
      3 C3         -1.6350   -2.0312   -0.7742 C.2       1 <0>        -0.1885
      4 C4         -2.8992   -2.6456   -0.7746 C.2       1 <0>         0.1239
      5 N1         -3.6986   -1.9499    0.0077 N.2       1 <0>        -0.2655
      6 N2         -2.9742   -0.8744    0.5372 N.pl3     1 <0>        -0.3152
      7 C5         -1.7009   -0.9427    0.0459 C.2       1 <0>         0.1265
      8 C6         -0.5971   -0.0042    0.3438 C.ar      1 <0>        -0.0455
      9 C7         -0.7700    1.3658    0.1418 C.ar      1 <0>        -0.0750
     10 C8          0.2609    2.2375    0.4210 C.ar      1 <0>        -0.1412
     11 C9          1.4704    1.7539    0.9021 C.ar      1 <0>         0.1204
     12 C10         1.6461    0.3915    1.1047 C.ar      1 <0>        -0.1425
     13 C11         0.6198   -0.4864    0.8278 C.ar      1 <0>        -0.0744
     14 O1          2.4843    2.6160    1.1757 O.3       1 <0>        -0.4982
     15 C12        -3.4674    0.0985    1.4150 C.ar      1 <0>         0.1500
     16 C13        -2.6458    0.6247    2.4034 C.ar      1 <0>        -0.1216
     17 C14        -3.1337    1.5880    3.2644 C.ar      1 <0>        -0.0979
     18 C15        -4.4423    2.0204    3.1504 C.ar      1 <0>        -0.1182
     19 C16        -5.2645    1.4947    2.1707 C.ar      1 <0>        -0.1014
     20 C17        -4.7810    0.5353    1.3029 C.ar      1 <0>        -0.1106
     21 C18        -3.2714   -3.8663   -1.5317 C.ar      1 <0>        -0.0246
     22 C19        -2.8311   -4.0360   -2.8430 C.ar      1 <0>        -0.0818
     23 C20        -3.1750   -5.1736   -3.5427 C.ar      1 <0>        -0.1449
     24 C21        -3.9669   -6.1448   -2.9453 C.ar      1 <0>         0.1151
     25 C22        -4.4114   -5.9761   -1.6410 C.ar      1 <0>        -0.1454
     26 C23        -4.0667   -4.8428   -0.9347 C.ar      1 <0>        -0.0728
     27 O2         -4.3081   -7.2624   -3.6388 O.3       1 <0>        -0.4992
     28 H1          0.4835   -2.1335   -3.4608 H         1 <0>         0.0604
     29 H2         -1.2671   -1.8169   -3.4024 H         1 <0>         0.0556
     30 H3         -0.1300   -0.6719   -2.6511 H         1 <0>         0.0546
     31 H4          0.4735   -2.3113   -0.9467 H         1 <0>         0.0723
     32 H5         -0.5093   -3.5606   -1.7478 H         1 <0>         0.0766
     33 H6         -1.7088    1.7422   -0.2368 H         1 <0>         0.1252
     34 H7          0.1278    3.2979    0.2650 H         1 <0>         0.1341
     35 H8          2.5881    0.0190    1.4793 H         1 <0>         0.1360
     36 H9          0.7574   -1.5460    0.9850 H         1 <0>         0.1337
     37 H10         3.0735    2.7806    0.4268 H         1 <0>         0.3949
     38 H11        -1.6251    0.2839    2.4960 H         1 <0>         0.1295
     39 H12        -2.4940    2.0008    4.0304 H         1 <0>         0.1329
     40 H13        -4.8228    2.7706    3.8278 H         1 <0>         0.1304
     41 H14        -6.2860    1.8345    2.0843 H         1 <0>         0.1331
     42 H15        -5.4235    0.1253    0.5378 H         1 <0>         0.1329
     43 H16        -2.2183   -3.2789   -3.3097 H         1 <0>         0.1363
     44 H17        -2.8310   -5.3074   -4.5577 H         1 <0>         0.1340
     45 H18        -5.0274   -6.7333   -1.1788 H         1 <0>         0.1331
     46 H19        -4.4130   -4.7119    0.0798 H         1 <0>         0.1302
     47 H20        -5.1315   -7.1789   -4.1390 H         1 <0>         0.3932
@<TRIPOS>BOND
     1    1    2 1
     2    1   28 1
     3    1   29 1
     4    1   30 1
     5    2    3 1
     6    2   31 1
     7    2   32 1
     8    3    7 2
     9    3    4 1
    10    4    5 2
    11    4   21 1
    12    5    6 1
    13    6    7 1
    14    6   15 1
    15    7    8 1
    16    8   13 ar
    17    8    9 ar
    18    9   10 ar
    19    9   33 1
    20   10   11 ar
    21   10   34 1
    22   11   12 ar
    23   11   14 1
    24   12   13 ar
    25   12   35 1
    26   13   36 1
    27   14   37 1
    28   15   20 ar
    29   15   16 ar
    30   16   17 ar
    31   16   38 1
    32   17   18 ar
    33   17   39 1
    34   18   19 ar
    35   18   40 1
    36   19   20 ar
    37   19   41 1
    38   20   42 1
    39   21   26 ar
    40   21   22 ar
    41   22   23 ar
    42   22   43 1
    43   23   24 ar
    44   23   44 1
    45   24   25 ar
    46   24   27 1
    47   25   26 ar
    48   25   45 1
    49   26   46 1
    50   27   47 1
@<TRIPOS>MOLECULE
ZINC03815444
   37    39     0     0     0
SMALL
USER_CHARGES

@<TRIPOS>ATOM
      1 C1         -3.8782    4.1089    2.9305 C.3       1 <0>        -0.1706
      2 C2         -3.6355    2.6166    3.1649 C.3       1 <0>         0.0973
      3 N1         -2.3108    2.2515    2.6569 N.pl3     1 <0>        -0.4738
      4 C3         -1.1441    2.2859    3.3891 C.ar      1 <0>         0.1233
      5 C4         -0.8548    2.6361    4.7034 C.ar      1 <0>        -0.1588
      6 C5          0.4476    2.5662    5.1617 C.ar      1 <0>         0.1279
      7 C6          1.4740    2.1480    4.3179 C.ar      1 <0>        -0.1699
      8 C7          1.2085    1.7992    3.0249 C.ar      1 <0>        -0.0498
      9 C8         -0.1020    1.8637    2.5419 C.ar      1 <0>        -0.1130
     10 C9         -0.7181    1.5718    1.2479 C.2       1 <0>        -0.1436
     11 C10        -2.0436    1.8273    1.3744 C.2       1 <0>         0.1120
     12 C11        -3.0485    1.6712    0.3011 C.ar      1 <0>        -0.0356
     13 C12        -4.2670    1.0450    0.5689 C.ar      1 <0>        -0.0949
     14 C13        -5.2032    0.9057   -0.4333 C.ar      1 <0>        -0.1408
     15 C14        -4.9314    1.3782   -1.7104 C.ar      1 <0>         0.1126
     16 C15        -3.7183    1.9969   -1.9822 C.ar      1 <0>        -0.1403
     17 C16        -2.7788    2.1444   -0.9842 C.ar      1 <0>        -0.0800
     18 O1         -5.8546    1.2343   -2.6969 O.3       1 <0>        -0.4989
     19 C17        -0.0127    1.0858    0.0080 C.3       1 <0>        -0.0852
     20 O2          0.7292    2.9088    6.4467 O.3       1 <0>        -0.4978
     21 H1         -3.1165    4.6874    3.4533 H         1 <0>         0.0627
     22 H2         -3.8272    4.3220    1.8628 H         1 <0>         0.0629
     23 H3         -4.8638    4.3805    3.3085 H         1 <0>         0.0752
     24 H4         -4.3972    2.0381    2.6422 H         1 <0>         0.0932
     25 H5         -3.6866    2.4035    4.2327 H         1 <0>         0.0880
     26 H6         -1.6448    2.9620    5.3638 H         1 <0>         0.1246
     27 H7          2.4869    2.0985    4.6894 H         1 <0>         0.1297
     28 H8          2.0091    1.4757    2.3762 H         1 <0>         0.1278
     29 H9         -4.4775    0.6736    1.5610 H         1 <0>         0.1276
     30 H10        -6.1477    0.4247   -0.2259 H         1 <0>         0.1329
     31 H11        -3.5105    2.3627   -2.9769 H         1 <0>         0.1349
     32 H12        -1.8353    2.6250   -1.1965 H         1 <0>         0.1362
     33 H13        -5.7711    0.4107   -3.1968 H         1 <0>         0.3939
     34 H14         0.0021   -0.0041    0.0020 H         1 <0>         0.0657
     35 H15         1.0099    1.4631    0.0003 H         1 <0>         0.0667
     36 H16        -0.5399    1.4469   -0.8751 H         1 <0>         0.0673
     37 H17         0.6769    2.1719    7.0707 H         1 <0>         0.3906
@<TRIPOS>BOND
     1    1    2 1
     2    1   21 1
     3    1   22 1
     4    1   23 1
     5    2    3 1
     6    2   24 1
     7    2   25 1
     8    3   11 1
     9    3    4 1
    10    4    9 ar
    11    4    5 ar
    12    5    6 ar
    13    5   26 1
    14    6    7 ar
    15    6   20 1
    16    7    8 ar
    17    7   27 1
    18    8    9 ar
    19    8   28 1
    20    9   10 1
    21   10   11 2
    22   10   19 1
    23   11   12 1
    24   12   17 ar
    25   12   13 ar
    26   13   14 ar
    27   13   29 1
    28   14   15 ar
    29   14   30 1
    30   15   16 ar
    31   15   18 1
    32   16   17 ar
    33   16   31 1
    34   17   32 1
    35   18   33 1
    36   19   34 1
    37   19   35 1
    38   19   36 1
    39   20   37 1
@<TRIPOS>MOLECULE
ZINC03815445
   38    41     0     0     0
SMALL
USER_CHARGES

@<TRIPOS>ATOM
      1 C1         -4.5794    3.4949    1.4618 C.ar      1 <0>        -0.0877
      2 C2         -4.8780    4.8356    1.5833 C.ar      1 <0>        -0.1430
      3 C3         -4.6859    5.6917    0.5074 C.ar      1 <0>         0.1105
      4 C4         -4.1881    5.2030   -0.6929 C.ar      1 <0>        -0.1416
      5 C5         -3.8818    3.8646   -0.8204 C.ar      1 <0>        -0.0809
      6 C6         -4.0731    3.0010    0.2589 C.ar      1 <0>        -0.0263
      7 C7         -3.7454    1.5637    0.1262 C.2       1 <0>        -0.1171
      8 C8         -4.6867    0.4314    0.1576 C.ar      1 <0>        -0.1217
      9 C9         -6.0682    0.3236    0.3064 C.ar      1 <0>        -0.0498
     10 C10        -6.6592   -0.9090    0.2912 C.ar      1 <0>        -0.1543
     11 C11        -5.8878   -2.0560    0.1284 C.ar      1 <0>         0.1364
     12 C12        -4.5152   -1.9655   -0.0200 C.ar      1 <0>        -0.1355
     13 C13        -3.8998   -0.7203   -0.0076 C.ar      1 <0>         0.0743
     14 O1         -2.6152   -0.3277   -0.1324 O.3       1 <0>        -0.1805
     15 C14        -2.5065    1.0131   -0.0504 C.2       1 <0>         0.0932
     16 C15        -1.2447    1.7711   -0.1434 C.ar      1 <0>        -0.0427
     17 C16        -0.9598    2.7747    0.7865 C.ar      1 <0>        -0.0624
     18 C17         0.2228    3.4767    0.6987 C.ar      1 <0>        -0.1435
     19 C18         1.1285    3.1917   -0.3150 C.ar      1 <0>         0.1246
     20 C19         0.8473    2.1988   -1.2446 C.ar      1 <0>        -0.1459
     21 C20        -0.3325    1.4912   -1.1646 C.ar      1 <0>        -0.0725
     22 O2          2.2934    3.8862   -0.3974 O.3       1 <0>        -0.4976
     23 O3         -6.4880   -3.2755    0.1156 O.3       1 <0>        -0.4917
     24 O4         -4.9863    7.0116    0.6294 O.3       1 <0>        -0.4994
     25 H1         -4.7331    2.8287    2.2979 H         1 <0>         0.1287
     26 H2         -5.2658    5.2194    2.5154 H         1 <0>         0.1320
     27 H3         -4.0403    5.8720   -1.5278 H         1 <0>         0.1315
     28 H4         -3.4946    3.4852   -1.7545 H         1 <0>         0.1264
     29 H5         -6.6701    1.2113    0.4329 H         1 <0>         0.1336
     30 H6         -7.7298   -0.9931    0.4064 H         1 <0>         0.1385
     31 H7         -3.9240   -2.8605   -0.1458 H         1 <0>         0.1407
     32 H8         -1.6632    2.9968    1.5753 H         1 <0>         0.1326
     33 H9          0.4456    4.2499    1.4191 H         1 <0>         0.1371
     34 H10         1.5545    1.9807   -2.0311 H         1 <0>         0.1365
     35 H11        -0.5501    0.7190   -1.8876 H         1 <0>         0.1335
     36 H12         3.0234    3.4898    0.0977 H         1 <0>         0.3954
     37 H13        -6.7605   -3.5705   -0.7641 H         1 <0>         0.3960
     38 H14        -5.8967    7.2316    0.3891 H         1 <0>         0.3924
@<TRIPOS>BOND
     1    1    6 ar
     2    1    2 ar
     3    1   25 1
     4    2    3 ar
     5    2   26 1
     6    3    4 ar
     7    3   24 1
     8    4    5 ar
     9    4   27 1
    10    5    6 ar
    11    5   28 1
    12    6    7 1
    13    7   15 2
    14    7    8 1
    15    8   13 ar
    16    8    9 ar
    17    9   10 ar
    18    9   29 1
    19   10   11 ar
    20   10   30 1
    21   11   12 ar
    22   11   23 1
    23   12   13 ar
    24   12   31 1
    25   13   14 1
    26   14   15 1
    27   15   16 1
    28   16   21 ar
    29   16   17 ar
    30   17   18 ar
    31   17   32 1
    32   18   19 ar
    33   18   33 1
    34   19   20 ar
    35   19   22 1
    36   20   21 ar
    37   20   34 1
    38   21   35 1
    39   22   36 1
    40   23   37 1
    41   24   38 1
@<TRIPOS>MOLECULE
ZINC03815446
   33    35     0     0     0
SMALL
USER_CHARGES

@<TRIPOS>ATOM
      1 C1         -1.8121    2.2448    1.4696 C.3       1 <0>        -0.1451
      2 C2         -1.3177    2.1095    0.0280 C.3       1 <0>        -0.0783
      3 C3         -0.0130    1.3555    0.0130 C.2       1 <0>        -0.0845
      4 C4          1.2518    2.0713    0.0014 C.ar      1 <0>        -0.0902
      5 C5          1.4750    3.4702    0.0067 C.ar      1 <0>        -0.0562
      6 C6          2.7369    3.9736   -0.0062 C.ar      1 <0>        -0.1449
      7 C7          3.8524    3.1393   -0.0255 C.ar      1 <0>         0.1319
      8 C8          3.6746    1.7652   -0.0317 C.ar      1 <0>        -0.1050
      9 C9          2.3982    1.2460   -0.0183 C.ar      1 <0>        -0.0995
     10 S1          1.7343   -0.3994   -0.0200 S.3       1 <0>         0.0490
     11 C10        -0.0024    0.0015    0.0046 C.2       1 <0>        -0.0931
     12 C11        -1.1557   -0.9234    0.0143 C.ar      1 <0>        -0.0197
     13 C12        -1.2028   -1.9736    0.9326 C.ar      1 <0>        -0.0817
     14 C13        -2.2826   -2.8307    0.9419 C.ar      1 <0>        -0.1417
     15 C14        -3.3173   -2.6568    0.0324 C.ar      1 <0>         0.1159
     16 C15        -3.2714   -1.6168   -0.8865 C.ar      1 <0>        -0.1419
     17 C16        -2.1977   -0.7523   -0.8987 C.ar      1 <0>        -0.0785
     18 O1         -4.3773   -3.5069    0.0414 O.3       1 <0>        -0.4986
     19 O2          5.1044    3.6687   -0.0376 O.3       1 <0>        -0.4924
     20 H1         -1.9605    1.2533    1.8974 H         1 <0>         0.0567
     21 H2         -1.0721    2.7873    2.0581 H         1 <0>         0.0553
     22 H3         -2.7558    2.7902    1.4805 H         1 <0>         0.0609
     23 H4         -1.1693    3.1010   -0.3997 H         1 <0>         0.0735
     24 H5         -2.0577    1.5670   -0.5604 H         1 <0>         0.0794
     25 H6          0.6318    4.1448    0.0216 H         1 <0>         0.1314
     26 H7          2.8783    5.0443   -0.0017 H         1 <0>         0.1353
     27 H8          4.5300    1.1061   -0.0463 H         1 <0>         0.1382
     28 H9         -0.3965   -2.1120    1.6376 H         1 <0>         0.1312
     29 H10        -2.3219   -3.6408    1.6551 H         1 <0>         0.1347
     30 H11        -4.0778   -1.4853   -1.5927 H         1 <0>         0.1350
     31 H12        -2.1626    0.0562   -1.6140 H         1 <0>         0.1330
     32 H13        -4.2672   -4.2789   -0.5305 H         1 <0>         0.3942
     33 H14         5.4777    3.8162    0.8422 H         1 <0>         0.3957
@<TRIPOS>BOND
     1    1    2 1
     2    1   20 1
     3    1   21 1
     4    1   22 1
     5    2    3 1
     6    2   23 1
     7    2   24 1
     8    3   11 2
     9    3    4 1
    10    4    9 ar
    11    4    5 ar
    12    5    6 ar
    13    5   25 1
    14    6    7 ar
    15    6   26 1
    16    7    8 ar
    17    7   19 1
    18    8    9 ar
    19    8   27 1
    20    9   10 1
    21   10   11 1
    22   11   12 1
    23   12   17 ar
    24   12   13 ar
    25   13   14 ar
    26   13   28 1
    27   14   15 ar
    28   14   29 1
    29   15   16 ar
    30   15   18 1
    31   16   17 ar
    32   16   30 1
    33   17   31 1
    34   18   32 1
    35   19   33 1
@<TRIPOS>MOLECULE
ZINC03815448
   31    33     0     0     0
SMALL
USER_CHARGES

@<TRIPOS>ATOM
      1 C1          6.9535    3.3617   -0.0875 C.ar      1 <0>        -0.1372
      2 C2          5.5919    3.3640   -0.3046 C.ar      1 <0>        -0.0780
      3 C3          4.7713    2.4907    0.4108 C.ar      1 <0>        -0.0451
      4 C4          5.3334    1.6208    1.3486 C.ar      1 <0>         0.0041
      5 C5          6.6972    1.6219    1.5564 C.ar      1 <0>        -0.1366
      6 C6          7.5093    2.4925    0.8418 C.ar      1 <0>         0.1350
      7 O1          8.8515    2.4941    1.0526 O.3       1 <0>        -0.4916
      8 Cl1         4.3179    0.5364    2.2467 Cl        1 <0>        -0.0431
      9 C7          3.3109    2.4904    0.1814 C.2       1 <0>         0.1136
     10 C8          2.5598    1.3912   -0.0762 C.2       1 <0>        -0.1400
     11 C9          1.1788    1.8457   -0.2359 C.ar      1 <0>        -0.1008
     12 C10        -0.0279    1.1936   -0.5080 C.ar      1 <0>        -0.0411
     13 C11        -1.1838    1.9153   -0.6039 C.ar      1 <0>        -0.0811
     14 C12        -1.1710    3.2971   -0.4216 C.ar      1 <0>         0.1428
     15 C13         0.0118    3.9593   -0.1515 C.ar      1 <0>        -0.1404
     16 C14         1.1992    3.2416   -0.0557 C.ar      1 <0>         0.1273
     17 N1          2.5044    3.6064    0.1960 N.pl3     1 <0>        -0.4769
     18 C15         2.9643    4.9753    0.4424 C.3       1 <0>         0.1822
     19 Cl2         3.2624    5.8017   -1.1321 Cl        1 <0>        -0.1677
     20 O2         -2.3309    4.0002   -0.5155 O.3       1 <0>        -0.4838
     21 Cl3        -2.6798    1.1052   -0.9495 Cl        1 <0>        -0.0551
     22 H1          7.5887    4.0374   -0.6409 H         1 <0>         0.1425
     23 H2          5.1609    4.0406   -1.0276 H         1 <0>         0.1419
     24 H3          7.1333    0.9479    2.2788 H         1 <0>         0.1474
     25 H4          9.1403    3.1049    1.7444 H         1 <0>         0.3986
     26 H5          2.9140    0.3735   -0.1495 H         1 <0>         0.1576
     27 H6         -0.0453    0.1227   -0.6465 H         1 <0>         0.1424
     28 H7          0.0140    5.0307   -0.0157 H         1 <0>         0.1371
     29 H8          2.2022    5.5198    0.9999 H         1 <0>         0.1257
     30 H9          3.8883    4.9498    1.0200 H         1 <0>         0.1254
     31 H10        -2.5300    4.3131   -1.4085 H         1 <0>         0.3951
@<TRIPOS>BOND
     1    1    6 ar
     2    1    2 ar
     3    1   22 1
     4    2    3 ar
     5    2   23 1
     6    3    4 ar
     7    3    9 1
     8    4    5 ar
     9    4    8 1
    10    5    6 ar
    11    5   24 1
    12    6    7 1
    13    7   25 1
    14    9   17 1
    15    9   10 2
    16   10   11 1
    17   10   26 1
    18   11   16 ar
    19   11   12 ar
    20   12   13 ar
    21   12   27 1
    22   13   14 ar
    23   13   21 1
    24   14   15 ar
    25   14   20 1
    26   15   16 ar
    27   15   28 1
    28   16   17 1
    29   17   18 1
    30   18   19 1
    31   18   29 1
    32   18   30 1
    33   20   31 1
@<TRIPOS>MOLECULE
ZINC03815449
   47    50     0     0     0
SMALL
USER_CHARGES

@<TRIPOS>ATOM
      1 C1         -2.5064    5.0104    2.1570 C.3       1 <0>        -0.1395
      2 C2         -3.1882    4.1554    1.0869 C.3       1 <0>        -0.0425
      3 C3         -3.2302    2.6739    1.4704 C.3       1 <0>        -0.0948
      4 C4         -1.8321    2.0660    1.4012 C.3       1 <0>        -0.0900
      5 H1         -1.1591    2.6237    2.0524 H         1 <0>         0.0880
      6 C5         -1.3273    2.1416   -0.0445 C.3       1 <0>        -0.0322
      7 H2         -2.0148    1.6124   -0.7043 H         1 <0>         0.0854
      8 C6          0.0357    1.4989   -0.1149 C.ar      1 <0>        -0.0836
      9 C7          0.0944    0.1115   -0.1492 C.ar      1 <0>        -0.1062
     10 C8          1.3093   -0.5381   -0.1975 C.ar      1 <0>        -0.1467
     11 C9          2.4837    0.2009   -0.2117 C.ar      1 <0>         0.1065
     12 C10         2.4241    1.5834   -0.1810 C.ar      1 <0>        -0.1466
     13 C11         1.1988    2.2355   -0.1364 C.ar      1 <0>        -0.0527
     14 C12         1.2091    3.7418   -0.1231 C.3       1 <0>        -0.0831
     15 C13        -0.1384    4.2870    0.3467 C.3       1 <0>        -0.1208
     16 C14        -1.2437    3.6042   -0.4622 C.3       1 <0>        -0.0653
     17 H3         -0.9668    3.6421   -1.5158 H         1 <0>         0.0738
     18 C15        -2.5610    4.3174   -0.2949 C.3       1 <0>        -0.0762
     19 H4         -2.4072    5.3824   -0.4689 H         1 <0>         0.0712
     20 C16        -3.6276    3.8299   -1.2888 C.3       1 <0>        -0.1163
     21 C17        -4.9789    4.0032   -0.5664 C.3       1 <0>        -0.1582
     22 C18        -4.6595    4.5915    0.8252 C.3       1 <0>         0.1026
     23 H5         -4.7390    5.6785    0.8083 H         1 <0>         0.0592
     24 O1         -5.5294    4.0418    1.8168 O.3       1 <0>        -0.5573
     25 O2          3.6867   -0.4298   -0.2552 O.3       1 <0>        -0.4996
     26 C19        -1.8866    0.6039    1.8489 C.3       1 <0>        -0.0358
     27 Cl1        -2.4805    0.5177    3.5491 Cl        1 <0>        -0.1828
     28 H6         -1.5292    4.5883    2.3912 H         1 <0>         0.0650
     29 H7         -2.3832    6.0276    1.7852 H         1 <0>         0.0550
     30 H8         -3.1213    5.0245    3.0569 H         1 <0>         0.0614
     31 H9         -3.8888    2.1423    0.7835 H         1 <0>         0.0652
     32 H10        -3.6165    2.5749    2.4848 H         1 <0>         0.0822
     33 H11        -0.8199   -0.4633   -0.1382 H         1 <0>         0.1258
     34 H12         1.3469   -1.6171   -0.2237 H         1 <0>         0.1288
     35 H13         3.3375    2.1595   -0.1921 H         1 <0>         0.1272
     36 H14         1.9919    4.0895    0.5511 H         1 <0>         0.0773
     37 H15         1.4130    4.1083   -1.1291 H         1 <0>         0.0783
     38 H16        -0.2725    4.0710    1.4067 H         1 <0>         0.0765
     39 H17        -0.1758    5.3640    0.1834 H         1 <0>         0.0717
     40 H18        -3.4608    2.7793   -1.5264 H         1 <0>         0.0671
     41 H19        -3.6094    4.4280   -2.1999 H         1 <0>         0.0671
     42 H20        -5.4722    3.0371   -0.4595 H         1 <0>         0.0741
     43 H21        -5.6161    4.6889   -1.1249 H         1 <0>         0.0647
     44 H22        -6.4589    4.2821    1.7014 H         1 <0>         0.3760
     45 H23         4.0126   -0.5939   -1.1507 H         1 <0>         0.3910
     46 H24        -2.5639    0.0499    1.1989 H         1 <0>         0.0893
     47 H25        -0.8891    0.1685    1.7899 H         1 <0>         0.0992
@<TRIPOS>BOND
     1    1    2 1
     2    1   28 1
     3    1   29 1
     4    1   30 1
     5    2   18 1
     6    2   22 1
     7    2    3 1
     8    3    4 1
     9    3   31 1
    10    3   32 1
    11    4    5 1
    12    4    6 1
    13    4   26 1
    14    6    7 1
    15    6   16 1
    16    6    8 1
    17    8   13 ar
    18    8    9 ar
    19    9   10 ar
    20    9   33 1
    21   10   11 ar
    22   10   34 1
    23   11   12 ar
    24   11   25 1
    25   12   13 ar
    26   12   35 1
    27   13   14 1
    28   14   15 1
    29   14   36 1
    30   14   37 1
    31   15   16 1
    32   15   38 1
    33   15   39 1
    34   16   17 1
    35   16   18 1
    36   18   19 1
    37   18   20 1
    38   20   21 1
    39   20   40 1
    40   20   41 1
    41   21   22 1
    42   21   42 1
    43   21   43 1
    44   22   23 1
    45   22   24 1
    46   24   44 1
    47   25   45 1
    48   26   27 1
    49   26   46 1
    50   26   47 1
@<TRIPOS>MOLECULE
ZINC03861549
   40    41     0     0     0
SMALL
USER_CHARGES

@<TRIPOS>ATOM
      1 C1          1.3265    2.0199    0.0173 C.3       1 <0>        -0.1432
      2 C2         -0.0718    1.4002    0.0569 C.3       1 <0>        -0.0880
      3 C3          0.0438   -0.1022    0.0363 C.2       1 <0>        -0.0737
      4 C4          0.0373   -0.7920    1.1886 C.2       1 <0>        -0.0725
      5 C5          0.2711   -2.2807    1.1768 C.3       1 <0>        -0.0894
      6 C6         -1.0746   -3.0082    1.1479 C.3       1 <0>        -0.1442
      7 C7         -0.1985   -0.0934    2.4642 C.ar      1 <0>        -0.0467
      8 C8          0.8272    0.0073    3.4085 C.ar      1 <0>        -0.0918
      9 C9          0.6036    0.6667    4.5977 C.ar      1 <0>        -0.1422
     10 C10        -0.6421    1.2204    4.8638 C.ar      1 <0>         0.1038
     11 C11        -1.6661    1.1180    3.9310 C.ar      1 <0>        -0.1432
     12 C12        -1.4503    0.4659    2.7364 C.ar      1 <0>        -0.0912
     13 O1         -0.8595    1.8646    6.0401 O.3       1 <0>        -0.5003
     14 C13         0.1639   -0.8143   -1.2480 C.ar      1 <0>        -0.0459
     15 C14         1.3627   -1.4467   -1.5896 C.ar      1 <0>        -0.0926
     16 C15         1.4684   -2.1163   -2.7894 C.ar      1 <0>        -0.1430
     17 C16         0.3900   -2.1532   -3.6639 C.ar      1 <0>         0.1034
     18 C17        -0.8014   -1.5214   -3.3315 C.ar      1 <0>        -0.1420
     19 C18        -0.9187   -0.8546   -2.1313 C.ar      1 <0>        -0.0916
     20 O2          0.5008   -2.8098   -4.8482 O.3       1 <0>        -0.5003
     21 H1          1.2475    3.1020    0.1214 H         1 <0>         0.0573
     22 H2          1.9249    1.6190    0.8354 H         1 <0>         0.0550
     23 H3          1.8033    1.7802   -0.9331 H         1 <0>         0.0543
     24 H4         -0.6413    1.7328   -0.8109 H         1 <0>         0.0685
     25 H5         -0.5821    1.7129    0.9680 H         1 <0>         0.0772
     26 H6          0.8492   -2.5508    0.2931 H         1 <0>         0.0782
     27 H7          0.8209   -2.5692    2.0727 H         1 <0>         0.0697
     28 H8         -1.5863   -2.7886    0.2108 H         1 <0>         0.0550
     29 H9         -0.9087   -4.0825    1.2282 H         1 <0>         0.0565
     30 H10        -1.6875   -2.6717    1.9841 H         1 <0>         0.0545
     31 H11         1.7947   -0.4271    3.2045 H         1 <0>         0.1269
     32 H12         1.3970    0.7494    5.3257 H         1 <0>         0.1293
     33 H13        -2.6330    1.5504    4.1422 H         1 <0>         0.1296
     34 H14        -2.2470    0.3874    2.0114 H         1 <0>         0.1271
     35 H15        -1.1819    1.2912    6.7488 H         1 <0>         0.3913
     36 H16         2.2033   -1.4145   -0.9123 H         1 <0>         0.1273
     37 H17         2.3926   -2.6097   -3.0519 H         1 <0>         0.1294
     38 H18        -1.6373   -1.5531   -4.0146 H         1 <0>         0.1294
     39 H19        -1.8458   -0.3642   -1.8733 H         1 <0>         0.1268
     40 H20         0.8190   -2.2579   -5.5757 H         1 <0>         0.3912
@<TRIPOS>BOND
     1    1    2 1
     2    1   21 1
     3    1   22 1
     4    1   23 1
     5    2    3 1
     6    2   24 1
     7    2   25 1
     8    3    4 2
     9    3   14 1
    10    4    5 1
    11    4    7 1
    12    5    6 1
    13    5   26 1
    14    5   27 1
    15    6   28 1
    16    6   29 1
    17    6   30 1
    18    7   12 ar
    19    7    8 ar
    20    8    9 ar
    21    8   31 1
    22    9   10 ar
    23    9   32 1
    24   10   11 ar
    25   10   13 1
    26   11   12 ar
    27   11   33 1
    28   12   34 1
    29   13   35 1
    30   14   19 ar
    31   14   15 ar
    32   15   16 ar
    33   15   36 1
    34   16   17 ar
    35   16   37 1
    36   17   18 ar
    37   17   20 1
    38   18   19 ar
    39   18   38 1
    40   19   39 1
    41   20   40 1
@<TRIPOS>MOLECULE
ZINC03872293
   38    39     0     0     0
SMALL
USER_CHARGES

@<TRIPOS>ATOM
      1 C1          0.1458    3.4626    2.2527 C.3       1 <0>        -0.1282
      2 C2          0.6779    4.2281    1.0687 C.2       1 <0>        -0.1261
      3 C3          1.1656    3.5693    0.0096 C.2       1 <0>        -0.0617
      4 C4          1.1821    2.0867    0.0020 C.ar      1 <0>        -0.0475
      5 C5         -0.0166    1.3747    0.0096 C.ar      1 <0>        -0.0893
      6 C6          0.0021   -0.0041    0.0020 C.ar      1 <0>        -0.1435
      7 C7          1.2129   -0.6833   -0.0137 C.ar      1 <0>         0.1051
      8 C8          2.4084    0.0228   -0.0213 C.ar      1 <0>        -0.1438
      9 C9          2.3964    1.4017   -0.0128 C.ar      1 <0>        -0.0911
     10 O1          1.2280   -2.0419   -0.0211 O.3       1 <0>        -0.5000
     11 C10         1.6888    4.3222   -1.1547 C.2       1 <0>        -0.0617
     12 C11         2.1766    3.6634   -2.2138 C.2       1 <0>        -0.1260
     13 C12         2.7086    4.4289   -3.3978 C.3       1 <0>        -0.1283
     14 C13         1.6723    5.8048   -1.1471 C.ar      1 <0>        -0.0475
     15 C14         2.4443    6.5073   -0.2226 C.ar      1 <0>        -0.0912
     16 C15         2.4301    7.8861   -0.2210 C.ar      1 <0>        -0.1438
     17 C16         1.6404    8.5748   -1.1319 C.ar      1 <0>         0.1051
     18 C17         0.8669    7.8781   -2.0506 C.ar      1 <0>        -0.1436
     19 C18         0.8804    6.4993   -2.0606 C.ar      1 <0>        -0.0893
     20 O2          1.6249    9.9334   -1.1246 O.3       1 <0>        -0.5000
     21 H1          0.9389    2.8425    2.6707 H         1 <0>         0.0682
     22 H2         -0.2051    4.1631    3.0104 H         1 <0>         0.0623
     23 H3         -0.6811    2.8283    1.9334 H         1 <0>         0.0697
     24 H4          0.6659    5.3081    1.0743 H         1 <0>         0.1197
     25 H5         -0.9588    1.9025    0.0169 H         1 <0>         0.1274
     26 H6         -0.9261   -0.5562    0.0079 H         1 <0>         0.1299
     27 H7          3.3486   -0.5084   -0.0335 H         1 <0>         0.1299
     28 H8          3.3266    1.9504   -0.0188 H         1 <0>         0.1276
     29 H9          1.2236   -2.4305   -0.9066 H         1 <0>         0.3915
     30 H10         2.1886    2.5834   -2.2194 H         1 <0>         0.1197
     31 H11         3.0596    3.7284   -4.1555 H         1 <0>         0.0623
     32 H12         1.9155    5.0490   -3.8158 H         1 <0>         0.0697
     33 H13         3.5356    5.0632   -3.0786 H         1 <0>         0.0682
     34 H14         3.0553    5.9721    0.4891 H         1 <0>         0.1277
     35 H15         3.0307    8.4309    0.4924 H         1 <0>         0.1299
     36 H16         0.2536    8.4167   -2.7579 H         1 <0>         0.1299
     37 H17         0.2784    5.9580   -2.7754 H         1 <0>         0.1274
     38 H18         0.9488   10.3159   -0.5488 H         1 <0>         0.3915
@<TRIPOS>BOND
     1    1    2 1
     2    1   21 1
     3    1   22 1
     4    1   23 1
     5    2    3 2
     6    2   24 1
     7    3    4 1
     8    3   11 1
     9    4    9 ar
    10    4    5 ar
    11    5    6 ar
    12    5   25 1
    13    6    7 ar
    14    6   26 1
    15    7    8 ar
    16    7   10 1
    17    8    9 ar
    18    8   27 1
    19    9   28 1
    20   10   29 1
    21   11   12 2
    22   11   14 1
    23   12   13 1
    24   12   30 1
    25   13   31 1
    26   13   32 1
    27   13   33 1
    28   14   19 ar
    29   14   15 ar
    30   15   16 ar
    31   15   34 1
    32   16   17 ar
    33   16   35 1
    34   17   18 ar
    35   17   20 1
    36   18   19 ar
    37   18   36 1
    38   19   37 1
    39   20   38 1
@<TRIPOS>MOLECULE
ZINC04150452
   34    35     0     0     0
SMALL
USER_CHARGES

@<TRIPOS>ATOM
      1 C1          2.2692   -2.0445   -2.2679 C.3       1 <0>        -0.1133
      2 C2          1.7418   -2.8142   -1.0844 C.2       1 <0>        -0.0815
      3 C3          1.2486   -2.1573   -0.0219 C.2       1 <0>        -0.0795
      4 C4          0.7212   -2.9270    1.1615 C.3       1 <0>        -0.1197
      5 C5          1.2232   -0.6841   -0.0133 C.ar      1 <0>        -0.0523
      6 C6          0.0021   -0.0041    0.0020 C.ar      1 <0>        -0.0901
      7 C7         -0.0166    1.3738    0.0096 C.ar      1 <0>        -0.1436
      8 C8          1.1753    2.0868    0.0020 C.ar      1 <0>         0.1046
      9 C9          2.3912    1.4155   -0.0131 C.ar      1 <0>        -0.1440
     10 C10         2.4201    0.0378   -0.0208 C.ar      1 <0>        -0.0892
     11 O1          1.1519    3.4452    0.0095 O.3       1 <0>        -0.5002
     12 C11         1.7672   -4.2874   -1.0931 C.ar      1 <0>        -0.0507
     13 C12         2.5696   -4.9801   -0.1819 C.ar      1 <0>        -0.0920
     14 C13         2.5860   -6.3580   -0.1904 C.ar      1 <0>        -0.1437
     15 C14         1.8158   -7.0583   -1.1099 C.ar      1 <0>         0.1040
     16 C15         1.0210   -6.3743   -2.0208 C.ar      1 <0>        -0.1426
     17 C16         0.9936   -4.9966   -2.0163 C.ar      1 <0>        -0.0912
     18 O2          1.8396   -8.4167   -1.1182 O.3       1 <0>        -0.5002
     19 H1          3.3316   -1.8453   -2.1275 H         1 <0>         0.0701
     20 H2          2.1263   -2.6308   -3.1755 H         1 <0>         0.0641
     21 H3          1.7312   -1.1007   -2.3565 H         1 <0>         0.0688
     22 H4         -0.3412   -3.1262    1.0212 H         1 <0>         0.0693
     23 H5          1.2593   -3.8708    1.2501 H         1 <0>         0.0740
     24 H6          0.8641   -2.3407    2.0692 H         1 <0>         0.0645
     25 H7         -0.9253   -0.5576    0.0075 H         1 <0>         0.1276
     26 H8         -0.9596    1.9002    0.0169 H         1 <0>         0.1300
     27 H9          3.3154    1.9742   -0.0189 H         1 <0>         0.1299
     28 H10         3.3660   -0.4833   -0.0323 H         1 <0>         0.1274
     29 H11         1.1535    3.8337    0.8951 H         1 <0>         0.3916
     30 H12         3.1722   -4.4364    0.5306 H         1 <0>         0.1284
     31 H13         3.2019   -6.8942    0.5164 H         1 <0>         0.1301
     32 H14         0.4233   -6.9231   -2.7335 H         1 <0>         0.1300
     33 H15         0.3750   -4.4656   -2.7247 H         1 <0>         0.1278
     34 H16         2.5177   -8.7947   -1.6948 H         1 <0>         0.3916
@<TRIPOS>BOND
     1    1    2 1
     2    1   19 1
     3    1   20 1
     4    1   21 1
     5    2    3 2
     6    2   12 1
     7    3    4 1
     8    3    5 1
     9    4   22 1
    10    4   23 1
    11    4   24 1
    12    5   10 ar
    13    5    6 ar
    14    6    7 ar
    15    6   25 1
    16    7    8 ar
    17    7   26 1
    18    8    9 ar
    19    8   11 1
    20    9   10 ar
    21    9   27 1
    22   10   28 1
    23   11   29 1
    24   12   17 ar
    25   12   13 ar
    26   13   14 ar
    27   13   30 1
    28   14   15 ar
    29   14   31 1
    30   15   16 ar
    31   15   18 1
    32   16   17 ar
    33   16   32 1
    34   17   33 1
    35   18   34 1
